<?xml version="1.0" encoding="UTF-8"?>

<!-- generated on 2023-04-26 11:08:45 by Eclipse SUMO netedit Version 1.14.1
-->

<additional xmlns:xsi="http://www.w3.org/2001/XMLSchema-instance" xsi:noNamespaceSchemaLocation="http://sumo.dlr.de/xsd/additional_file.xsd">
    <!-- Shapes -->
    <poly id="1039830663" type="building" color="255,230,230" fill="1" layer="-1.00" shape="3487.393800,5776.004378 3498.696629,5712.791976 3484.772829,5710.325227 3489.233089,5685.338213 3500.693751,5687.369052 3509.590285,5637.583932 3525.755093,5640.455083 3501.112167,5778.428329 3487.393800,5776.004378"/>
    <poly id="1039830664" type="school" color="237,199,199" fill="1" layer="-2.00" shape="3421.032524,5730.113188 3428.925200,5634.882213 3495.648327,5642.676247 3476.865022,5738.979818 3421.032524,5730.113188"/>
    <poly id="1039830666" type="residential" color="235,235,227" fill="1" layer="-3.00" shape="3615.301438,5800.206057 3624.724304,5743.335333 3596.048565,5741.715572 3601.687746,5713.422834 3606.615549,5713.384543 3618.482474,5665.474543 3637.099143,5590.351017 3685.371001,5495.417411 3833.844039,5563.040938 4170.493171,5719.957301 4144.631465,5804.270326 4249.942828,5831.398271 4225.605175,5912.935473 3615.301438,5800.206057"/>
    <poly id="1039830667" type="residential" color="235,235,227" fill="1" layer="-3.00" shape="3321.222296,5911.518516 3331.947640,5783.287828 3342.941878,5783.568304 3346.036140,5756.527296 3432.566335,5763.455818 3416.977991,5921.060949 3321.222296,5911.518516"/>
    <poly id="1039830673" type="residential" color="235,235,227" fill="1" layer="-3.00" shape="3414.448108,5728.000057 3421.170949,5626.240426 3507.002280,5630.988611 3511.694599,5601.781896 3531.140835,5602.662863 3533.842782,5583.283846 3536.879184,5573.958619 3543.503287,5559.199901 3566.698898,5508.415682 3595.537290,5450.617039 3512.049293,5413.582563 3448.081660,5553.626916 3365.529477,5547.821517 3357.898766,5665.594157 3378.392368,5668.275823 3374.435075,5724.848947 3414.448108,5728.000057"/>
    <poly id="1039830674" type="residential" color="235,235,227" fill="1" layer="-3.00" shape="3519.337189,5749.748970 3542.024176,5627.086493 3550.313595,5584.853997 3558.755953,5560.080260 3630.545120,5588.859050 3637.099143,5590.351017 3618.482474,5665.474543 3606.615549,5713.384543 3601.687746,5713.422834 3595.712212,5743.494149 3581.765901,5741.415892 3578.974180,5759.141728 3519.337189,5749.748970"/>
    <poly id="106623205" type="leisure" color="207,245,201" fill="1" layer="-2.00" shape="3444.017367,4573.505157 3448.324553,4442.128239 3524.796746,4446.683364 3524.718325,4448.681929 3520.081651,4568.617499 3519.847088,4574.701988 3444.017367,4573.505157"/>
    <poly id="106623205#1" type="sport" color="79,230,125" fill="1" layer="-2.00" shape="3444.017367,4573.505157 3448.324553,4442.128239 3524.796746,4446.683364 3524.718325,4448.681929 3520.081651,4568.617499 3519.847088,4574.701988 3444.017367,4573.505157"/>
    <poly id="106623206" type="leisure" color="207,245,201" fill="1" layer="-2.00" shape="3553.596004,4420.708011 3555.343810,4378.515383 3458.227978,4374.475839 3456.385106,4416.458345 3517.193108,4419.104131 3524.944003,4418.388958 3553.596004,4420.708011"/>
    <poly id="106623206#1" type="sport" color="79,230,125" fill="1" layer="-2.00" shape="3553.596004,4420.708011 3555.343810,4378.515383 3458.227978,4374.475839 3456.385106,4416.458345 3517.193108,4419.104131 3524.944003,4418.388958 3553.596004,4420.708011"/>
    <poly id="107039532" type="building" color="255,230,230" fill="1" layer="-1.00" shape="4283.463511,5137.262227 4345.950172,5135.739221 4345.616535,5122.311097 4283.129849,5123.845203 4283.463511,5137.262227"/>
    <poly id="107039533" type="building" color="255,230,230" fill="1" layer="-1.00" shape="4160.670123,5078.389728 4228.632529,5086.879997 4230.516479,5071.947464 4162.553858,5063.446078 4160.670123,5078.389728"/>
    <poly id="107039534" type="building" color="255,230,230" fill="1" layer="-1.00" shape="4285.599635,5224.112400 4286.271894,5257.151170 4300.772959,5256.862224 4300.100678,5223.812353 4285.599635,5224.112400"/>
    <poly id="107039535" type="building" color="255,230,230" fill="1" layer="-1.00" shape="4251.748202,5004.897260 4252.040760,4988.500697 4266.769849,4990.030301 4266.382791,4994.129078 4379.319460,5001.731467 4379.281763,4996.814573 4391.683351,4997.807275 4384.823592,5062.327128 4369.471170,5060.802079 4372.091011,5019.268974 4376.508830,5019.501494 4376.063166,5015.964095 4251.748202,5004.897260"/>
    <poly id="107039536" type="building" color="255,230,230" fill="1" layer="-1.00" shape="4395.762718,4963.910715 4397.160725,4953.510648 4398.748067,4952.210913 4401.283196,4951.980589 4403.271906,4952.897725 4403.721798,4954.759033 4402.530083,4964.214040 4395.762718,4963.910715"/>
    <poly id="107039538" type="building" color="255,230,230" fill="1" layer="-1.00" shape="4298.572507,5107.099211 4331.583387,5109.032481 4332.143800,5099.693300 4299.124338,5097.760093 4298.572507,5107.099211"/>
    <poly id="107039540" type="building" color="255,230,230" fill="1" layer="-1.00" shape="4268.750606,5192.285656 4268.633115,5176.991114 4277.453815,5176.645866 4277.376153,5166.534598 4308.275411,5166.030939 4308.782272,5205.353431 4278.312437,5206.142385 4277.998336,5191.937128 4268.750606,5192.285656"/>
    <poly id="107039541" type="building" color="255,230,230" fill="1" layer="-1.00" shape="4149.905581,5104.745671 4162.858869,5105.300862 4163.330248,5094.408386 4150.376942,5093.853194 4149.905581,5104.745671"/>
    <poly id="107039542" type="building" color="255,230,230" fill="1" layer="-1.00" shape="4195.418020,5140.669446 4195.532686,5128.925035 4276.450437,5128.303099 4276.530144,5138.680745 4195.418020,5140.669446"/>
    <poly id="107039543" type="building" color="255,230,230" fill="1" layer="-1.00" shape="4413.132618,4818.470995 4420.320594,4819.026409 4421.238006,4807.209267 4414.050018,4806.653852 4413.132618,4818.470995"/>
    <poly id="107039544" type="building" color="255,230,230" fill="1" layer="-1.00" shape="4246.102840,5090.575136 4332.336716,5097.005683 4333.546315,5080.990579 4247.312260,5074.560015 4246.102840,5090.575136"/>
    <poly id="107039545" type="building" color="255,230,230" fill="1" layer="-1.00" shape="4332.327973,5291.772898 4364.536708,5298.363244 4366.836550,5296.425350 4377.150762,5189.000667 4391.465097,5191.077572 4382.414615,5299.591417 4380.761345,5303.422404 4375.772551,5310.020604 4373.888999,5311.666710 4367.192565,5315.003587 4329.084620,5306.549345 4332.327973,5291.772898"/>
    <poly id="107039546" type="building" color="255,230,230" fill="1" layer="-1.00" shape="4260.903456,4948.007358 4261.451520,4937.069905 4278.493338,4938.315373 4280.376277,4909.885585 4265.644990,4908.089576 4266.603234,4896.061199 4289.743436,4898.347626 4288.408564,4915.839961 4322.479198,4918.852844 4325.789702,4883.863272 4339.671257,4885.122030 4331.503910,4971.773733 4318.041030,4970.511779 4321.336833,4933.613160 4288.312474,4931.136137 4286.770304,4949.440346 4260.903456,4948.007358"/>
    <poly id="107039547" type="building" color="255,230,230" fill="1" layer="-1.00" shape="4312.669839,5301.203160 4322.256290,5290.473824 4300.410358,5264.146439 4291.658779,5274.591898 4312.669839,5301.203160"/>
    <poly id="107039548" type="building" color="255,230,230" fill="1" layer="-1.00" shape="4144.053598,5076.874862 4156.892825,5078.141305 4157.820124,5068.777085 4144.989422,5067.510574 4144.053598,5076.874862"/>
    <poly id="107039549" type="building" color="255,230,230" fill="1" layer="-1.00" shape="4203.222122,5105.867230 4224.238162,5106.360525 4224.580088,5091.950432 4203.564009,5091.457136 4203.222122,5105.867230"/>
    <poly id="107039550" type="building" color="255,230,230" fill="1" layer="-1.00" shape="4274.239073,4850.393732 4282.022283,4850.600352 4281.028379,4857.989309 4306.895528,4859.422368 4305.685938,4866.535484 4311.786574,4866.766150 4312.177839,4863.211231 4343.094818,4865.970923 4344.526293,4861.053859 4347.692801,4861.839850 4346.907998,4869.771080 4371.303941,4870.949249 4375.131477,4849.885907 4395.747831,4851.637022 4397.501576,4834.152601 4365.324455,4831.935137 4364.317870,4837.681418 4359.694868,4837.439378 4360.910812,4831.147604 4324.520726,4828.696228 4322.677119,4834.448938 4317.620741,4833.388868 4318.840910,4827.652041 4284.558379,4824.907188 4282.168550,4842.951511 4275.858724,4842.178588 4274.239073,4850.393732"/>
    <poly id="107039551" type="building" color="255,230,230" fill="1" layer="-1.00" shape="4148.127214,5049.038648 4172.708222,5052.135002 4173.822848,5044.911594 4188.967801,5046.104853 4188.179520,5052.448869 4212.247946,5055.538194 4212.853825,5046.576044 4225.134163,5047.358512 4225.569236,5038.397676 4219.351290,5038.445477 4220.124496,5030.136927 4203.134544,5028.946693 4202.491802,5033.114039 4163.115861,5029.920530 4163.751920,5024.887452 4150.801828,5024.765123 4148.127214,5049.038648"/>
    <poly id="107039552" type="building" color="255,230,230" fill="1" layer="-1.00" shape="4412.222264,4836.781428 4422.008412,4837.527831 4423.159617,4822.778569 4413.364824,4822.021130 4412.222264,4836.781428"/>
    <poly id="107039553" type="building" color="255,230,230" fill="1" layer="-1.00" shape="4335.671384,5094.116364 4336.663037,5058.600692 4384.193678,5062.609451 4382.988395,5097.027876 4335.671384,5094.116364"/>
    <poly id="107039554" type="building" color="255,230,230" fill="1" layer="-1.00" shape="4174.454299,5104.778747 4199.349694,5105.464122 4199.723854,5091.919558 4174.828500,5091.245281 4174.454299,5104.778747"/>
    <poly id="107039555" type="building" color="255,230,230" fill="1" layer="-1.00" shape="4389.466126,5134.217836 4398.619944,5134.980150 4394.750683,5175.102062 4380.237037,5173.770361 4383.916098,5136.702327 4364.760430,5134.862357 4365.880875,5120.579500 4390.415305,5122.100746 4389.466126,5134.217836"/>
    <poly id="107039557" type="tourism" color="207,245,201" fill="1" layer="-2.00" shape="4240.653805,5065.076507 4244.195394,5006.864452 4314.039621,5014.519650 4308.592945,5071.647414 4240.653805,5065.076507"/>
    <poly id="107039558" type="parking" color="184,184,179" fill="1" layer="-1.00" shape="4310.694055,5071.631285 4316.567804,5014.500246 4337.813536,5017.067746 4332.781026,5073.648424 4310.694055,5071.631285"/>
    <poly id="107039559" type="building" color="255,230,230" fill="1" layer="-1.00" shape="4399.112484,4920.629376 4400.503024,4922.627771 4403.205381,4923.039950 4405.895063,4921.798367 4406.144819,4910.918715 4399.918740,4911.033027 4399.112484,4920.629376"/>
    <poly id="107050552" type="tourism" color="207,245,201" fill="1" layer="-2.00" shape="4422.914036,5417.282353 4459.817202,5420.185308 4463.643097,5417.880566 4465.681480,5409.684450 4467.877845,5331.758559 4435.007518,5330.201030 4422.914036,5417.282353"/>
    <poly id="107050556" type="building" color="255,230,230" fill="1" layer="-1.00" shape="4169.717261,4993.118488 4158.792058,4991.959388 4157.210328,5010.630227 4169.090236,5011.537784 4168.736543,5015.525313 4206.107176,5018.967366 4206.460888,5014.979839 4218.921580,5015.883008 4220.494833,4997.201150 4207.850991,4995.810998 4207.346746,5005.771342 4168.831446,5002.326990 4169.717261,4993.118488"/>
    <poly id="107050560" type="tourism" color="207,245,201" fill="1" layer="-2.00" shape="4237.834219,4969.385119 4247.333748,4872.822094 3992.885215,4845.666875 3983.343268,4942.963183 4237.834219,4969.385119"/>
    <poly id="107050565" type="tourism" color="207,245,201" fill="1" layer="-2.00" shape="4444.824703,5220.216218 4467.760110,5221.550158 4463.407442,5295.629836 4486.829701,5296.993401 4485.597333,5317.881441 4439.231474,5315.184025 4444.824703,5220.216218"/>
    <poly id="107050567" type="tourism" color="207,245,201" fill="1" layer="-2.00" shape="4454.074944,5134.311112 4473.663801,5135.837197 4477.431328,5087.946300 4483.806971,5006.947143 4464.243409,5005.420832 4454.074944,5134.311112"/>
    <poly id="107050568" type="building" color="255,230,230" fill="1" layer="-1.00" shape="4441.224972,5591.041746 4463.353175,5513.873353 4533.186253,5512.894962 4525.884916,5600.161476 4460.132567,5595.214734 4441.224972,5591.041746"/>
    <poly id="107050574" type="tourism" color="207,245,201" fill="1" layer="-2.00" shape="4391.576335,5557.656802 4424.729700,5573.985717 4429.109425,5574.862338 4433.788935,5570.275591 4448.329774,5506.118686 4459.526639,5507.165110 4462.629553,5501.913371 4464.731592,5433.989056 4462.442347,5431.731137 4423.279659,5430.443845 4419.462457,5433.880715 4391.576335,5557.656802"/>
    <poly id="107050575" type="tourism" color="207,245,201" fill="1" layer="-2.00" shape="4446.941659,5217.813561 4468.002572,5219.750144 4469.905037,5216.105966 4475.837006,5151.937378 4453.245964,5149.868190 4446.941659,5217.813561"/>
    <poly id="107087114" type="building" color="255,230,230" fill="1" layer="-1.00" shape="3667.248562,4792.366196 3667.598980,4757.166165 3681.135036,4756.783648 3681.166551,4760.845912 3686.376837,4760.805493 3686.416376,4759.295620 3731.895896,4759.564546 3731.914479,4761.961948 3737.030808,4761.922291 3737.070923,4758.281263 3751.071055,4758.261564 3751.007193,4794.114248 3736.596450,4794.048333 3736.975954,4772.478578 3731.653261,4772.342238 3731.736046,4774.206354 3686.663159,4773.490287 3686.645251,4771.181677 3681.323933,4771.222958 3681.286243,4792.790067 3667.248562,4792.366196"/>
    <poly id="107087115" type="building" color="255,230,230" fill="1" layer="-1.00" shape="3850.488324,5075.910346 3908.232832,5076.329605 3908.326975,5064.196851 3850.582375,5063.777590 3850.488324,5075.910346"/>
    <poly id="107087117" type="building" color="255,230,230" fill="1" layer="-1.00" shape="3564.772715,4931.043245 3564.882970,4918.854855 3474.905862,4918.034164 3474.787123,4930.211524 3564.772715,4931.043245"/>
    <poly id="107087120" type="building" color="255,230,230" fill="1" layer="-1.00" shape="3593.339390,5060.044604 3641.284133,5060.116205 3641.429017,5038.070964 3624.430506,5037.992061 3624.679382,5029.343417 3610.278482,5029.388670 3610.242375,5037.935764 3594.021193,5037.861990 3593.339390,5060.044604"/>
    <poly id="107087122" type="building" color="255,230,230" fill="1" layer="-1.00" shape="3422.250263,4711.433791 3484.592949,4711.814066 3484.705798,4694.486470 3422.354429,4694.106259 3422.250263,4711.433791"/>
    <poly id="107087124" type="building" color="255,230,230" fill="1" layer="-1.00" shape="3729.928097,5087.521977 3730.279302,5079.938122 3703.942116,5079.498554 3703.753132,5087.070054 3729.928097,5087.521977"/>
    <poly id="107087125" type="building" color="255,230,230" fill="1" layer="-1.00" shape="3575.517967,4736.469819 3575.723379,4695.854227 3657.505209,4695.896175 3657.576187,4705.041818 3647.938687,4704.772527 3647.931326,4737.938640 3575.517967,4736.469819"/>
    <poly id="107087127" type="building" color="255,230,230" fill="1" layer="-1.00" shape="3472.505244,4841.187027 3534.156993,4841.828361 3534.302742,4827.619540 3472.650878,4826.978203 3472.505244,4841.187027"/>
    <poly id="107087132" type="building" color="255,230,230" fill="1" layer="-1.00" shape="3570.324796,5102.458051 3663.122470,5103.801825 3663.410737,5087.016755 3570.817845,5085.671382 3570.324796,5102.458051"/>
    <poly id="107087133" type="building" color="255,230,230" fill="1" layer="-1.00" shape="3509.064308,4664.405276 3555.567941,4664.476497 3555.593298,4651.256495 3509.081043,4651.185339 3509.064308,4664.405276"/>
    <poly id="107087136" type="building" color="255,230,230" fill="1" layer="-1.00" shape="3401.665886,4722.638466 3419.237651,4722.745718 3419.433357,4691.953467 3401.861520,4691.846215 3401.665886,4722.638466"/>
    <poly id="107087137" type="building" color="255,230,230" fill="1" layer="-1.00" shape="4093.515413,5092.714916 4122.080543,5095.203223 4122.936561,5085.462155 4094.371396,5082.973844 4093.515413,5092.714916"/>
    <poly id="107087140" type="building" color="255,230,230" fill="1" layer="-1.00" shape="3916.173289,4733.241664 3908.856806,4732.654417 3909.372283,4735.247774 3907.736802,4739.156423 3904.760533,4741.998760 3900.269215,4743.332142 3896.763866,4742.926347 3892.913646,4741.002553 3890.062995,4737.994359 3888.701906,4735.407541 3888.507784,4731.291036 3888.989938,4728.467974 3891.290018,4724.343288 3894.107128,4723.011742 3894.406786,4718.680525 3891.579551,4718.702380 3891.778614,4680.362326 3913.617702,4679.982644 3912.906176,4717.238880 3916.399649,4717.211885 3916.173289,4733.241664"/>
    <poly id="107087144" type="building" color="255,230,230" fill="1" layer="-1.00" shape="4087.644784,5023.653138 4123.291989,5027.352259 4124.446099,5016.387926 4088.798758,5012.677699 4087.644784,5023.653138"/>
    <poly id="107087146" type="building" color="255,230,230" fill="1" layer="-1.00" shape="3460.177989,4958.385470 3474.562550,4958.417761 3474.664978,4917.814044 3460.280253,4917.770652 3460.177989,4958.385470"/>
    <poly id="107087147" type="building" color="255,230,230" fill="1" layer="-1.00" shape="3562.263935,4815.991578 3473.092059,4816.718593 3473.221650,4802.643092 3562.596442,4802.724787 3562.263935,4815.991578"/>
    <poly id="107087151" type="building" color="255,230,230" fill="1" layer="-1.00" shape="4166.326343,4671.196659 4166.257599,4662.261901 4169.793803,4662.234694 4169.743849,4655.741733 4266.605832,4651.744913 4267.149175,4667.990749 4166.326343,4671.196659"/>
    <poly id="107087153" type="building" color="255,230,230" fill="1" layer="-1.00" shape="3732.584484,5086.413608 3746.937811,5086.857343 3748.397971,5039.405677 3734.053182,5038.972972 3732.584484,5086.413608"/>
    <poly id="107087155" type="leisure" color="207,245,201" fill="1" layer="-2.00" shape="3612.025504,4972.788540 3636.198092,4972.722914 3636.081470,4931.299533 3611.908750,4931.365157 3612.025504,4972.788540"/>
    <poly id="107087155#1" type="sport" color="79,230,125" fill="1" layer="-2.00" shape="3612.025504,4972.788540 3636.198092,4972.722914 3636.081470,4931.299533 3611.908750,4931.365157 3612.025504,4972.788540"/>
    <poly id="107087156" type="building" color="255,230,230" fill="1" layer="-1.00" shape="3703.173145,5055.240453 3732.645609,5055.733412 3732.898102,5040.924383 3703.425581,5040.431422 3703.173145,5055.240453"/>
    <poly id="107087158" type="building" color="255,230,230" fill="1" layer="-1.00" shape="3687.236684,5085.255712 3701.579841,5085.488545 3702.385494,5038.485932 3688.042163,5038.241998 3687.236684,5085.255712"/>
    <poly id="107087160" type="building" color="255,230,230" fill="1" layer="-1.00" shape="3646.557686,5071.552412 3665.293496,5072.072970 3666.464407,5030.339900 3647.728494,5029.819338 3646.557686,5071.552412"/>
    <poly id="107087163" type="building" color="255,230,230" fill="1" layer="-1.00" shape="3489.335904,4720.867849 3505.503322,4720.531140 3504.913666,4693.052736 3488.746190,4693.389446 3489.335904,4720.867849"/>
    <poly id="107087164" type="building" color="255,230,230" fill="1" layer="-1.00" shape="3951.085086,4699.040067 3951.032802,4692.269628 3950.349480,4692.274905 3950.902202,4669.826959 3984.034647,4670.647846 3983.739443,4693.271397 3956.937510,4693.655899 3956.976334,4698.683782 3951.085086,4699.040067"/>
    <poly id="107087166" type="building" color="255,230,230" fill="1" layer="-1.00" shape="4362.465510,4789.944572 4379.979115,4791.408648 4380.349910,4785.178856 4363.254820,4783.711569 4362.465510,4789.944572"/>
    <poly id="107087167" type="building" color="255,230,230" fill="1" layer="-1.00" shape="3938.182608,4659.813329 3891.682340,4660.172637 3891.834715,4679.884603 3938.334862,4679.525295 3938.182608,4659.813329"/>
    <poly id="107087170" type="building" color="255,230,230" fill="1" layer="-1.00" shape="4394.568212,4771.284002 4410.983324,4773.189459 4412.747039,4758.113611 4396.331894,4756.208149 4394.568212,4771.284002"/>
    <poly id="107087171" type="building" color="255,230,230" fill="1" layer="-1.00" shape="4092.223508,5103.524922 4102.089718,5103.615407 4102.176510,5094.923638 4092.310202,5094.822054 4092.223508,5103.524922"/>
    <poly id="107087172" type="building" color="255,230,230" fill="1" layer="-1.00" shape="4354.031152,4749.395335 4365.489416,4749.851350 4367.574987,4697.666620 4356.116645,4697.210601 4354.031152,4749.395335"/>
    <poly id="107087176" type="building" color="255,230,230" fill="1" layer="-1.00" shape="3575.056442,4979.324951 3575.218451,5000.169036 3587.509217,5000.073517 3587.347242,4979.229432 3575.056442,4979.324951"/>
    <poly id="107087178" type="building" color="255,230,230" fill="1" layer="-1.00" shape="4040.833545,5018.841492 4041.294748,5012.189188 4039.414835,5012.092688 4039.783692,5004.542017 4080.267198,5008.447839 4079.428512,5021.540901 4074.210709,5020.582136 4073.966450,5022.137983 4040.833545,5018.841492"/>
    <poly id="107087180" type="leisure" color="207,245,201" fill="1" layer="-2.00" shape="3783.557132,5013.159861 3799.318939,5013.470691 3799.603464,4985.130822 3783.866534,4984.731000 3783.557132,5013.159861"/>
    <poly id="107087181" type="leisure" color="207,245,201" fill="1" layer="-2.00" shape="3632.228157,4791.461455 3645.722909,4791.267890 3646.150276,4763.792686 3632.552375,4763.909353 3632.228157,4791.461455"/>
    <poly id="107087181#1" type="sport" color="79,230,125" fill="1" layer="-2.00" shape="3632.228157,4791.461455 3645.722909,4791.267890 3646.150276,4763.792686 3632.552375,4763.909353 3632.228157,4791.461455"/>
    <poly id="107087184" type="leisure" color="207,245,201" fill="1" layer="-2.00" shape="3574.905233,4855.463946 3590.667383,4855.774347 3590.951153,4827.434469 3575.213965,4827.046174 3574.905233,4855.463946"/>
    <poly id="107087184#1" type="sport" color="79,230,125" fill="1" layer="-2.00" shape="3574.905233,4855.463946 3590.667383,4855.774347 3590.951153,4827.434469 3575.213965,4827.046174 3574.905233,4855.463946"/>
    <poly id="107087185" type="building" color="255,230,230" fill="1" layer="-1.00" shape="4282.748743,4664.885120 4347.739656,4663.043280 4347.282157,4646.830083 4282.282648,4648.683089 4282.748743,4664.885120"/>
    <poly id="107087189" type="tourism" color="207,245,201" fill="1" layer="-2.00" shape="4361.936167,4915.841811 4365.598148,4884.334882 4394.269081,4887.167502 4391.624823,4916.624263 4388.004450,4919.027358 4361.936167,4915.841811"/>
    <poly id="107087190" type="building" color="255,230,230" fill="1" layer="-1.00" shape="4370.717068,4806.664094 4375.968546,4807.545108 4377.161640,4800.498730 4371.918698,4799.617650 4370.717068,4806.664094"/>
    <poly id="107087191" type="building" color="255,230,230" fill="1" layer="-1.00" shape="3479.294341,4887.053872 3490.101781,4887.313839 3490.217806,4885.758970 3498.222314,4885.863169 3498.100510,4887.773275 3498.515426,4889.501608 3499.855989,4890.534553 3501.591171,4890.687547 3503.322379,4890.329982 3504.377951,4888.767802 3506.377914,4888.918736 3506.415655,4893.769037 3538.809983,4894.249623 3538.768719,4887.845384 3540.143870,4887.834690 3541.143815,4890.102364 3541.970427,4890.950617 3543.389924,4891.150474 3544.695622,4890.996023 3545.669587,4889.922873 3546.376010,4888.496611 3546.412414,4886.587170 3545.910890,4885.802987 3548.431699,4885.927682 3552.958596,4885.892484 3552.967398,4887.024591 3563.890701,4886.806472 3564.123383,4873.884547 3542.160264,4873.622420 3542.202881,4872.512113 3502.041801,4871.758953 3502.125333,4873.711860 3479.430678,4873.844098 3479.294341,4887.053872"/>
    <poly id="107087194" type="building" color="255,230,230" fill="1" layer="-1.00" shape="4286.821709,4782.599819 4303.504956,4783.825902 4306.508235,4743.311020 4289.824900,4742.084929 4286.821709,4782.599819"/>
    <poly id="107087196" type="building" color="255,230,230" fill="1" layer="-1.00" shape="4052.684155,5077.989459 4136.289431,5084.660056 4137.560033,5068.855338 4053.954585,5062.184726 4052.684155,5077.989459"/>
    <poly id="107087197" type="building" color="255,230,230" fill="1" layer="-1.00" shape="4055.901522,5097.566806 4071.910140,5097.787495 4072.071002,5086.520013 4056.062361,5086.299323 4055.901522,5097.566806"/>
    <poly id="107087200" type="building" color="255,230,230" fill="1" layer="-1.00" shape="3930.637413,5076.322971 3909.635851,5075.508480 3910.240314,5032.148186 3931.493257,5032.316954 3931.139858,5041.854368 3915.685515,5041.529792 3915.413260,5050.511593 3929.669255,5050.512435 3929.736913,5059.269614 3916.674203,5058.937658 3916.482213,5067.252854 3930.655338,5067.587330 3930.637413,5076.322971"/>
    <poly id="107087201" type="building" color="255,230,230" fill="1" layer="-1.00" shape="3680.699698,5015.555563 3727.659183,5016.312442 3727.884819,5002.447101 3680.925248,5001.690219 3680.699698,5015.555563"/>
    <poly id="107087204" type="building" color="255,230,230" fill="1" layer="-1.00" shape="4399.705504,4788.471413 4413.252402,4789.510878 4414.495297,4773.351246 4400.948370,4772.311779 4399.705504,4788.471413"/>
    <poly id="107087205" type="building" color="255,230,230" fill="1" layer="-1.00" shape="3675.070227,4939.532624 3675.647834,4909.392311 3671.302922,4902.055788 3669.414595,4896.476165 3668.854860,4894.793346 3669.029943,4873.325065 3671.175872,4868.069330 3673.319550,4863.623895 3676.092862,4859.961658 3676.498868,4813.206352 3694.832832,4813.596915 3692.296628,4809.287684 3700.626749,4808.412793 3710.831655,4808.067262 3725.420365,4807.954153 3732.298256,4808.167231 3741.890135,4809.180663 3744.040563,4810.007578 3741.894764,4814.186614 3764.686207,4814.398503 3772.255110,4816.704117 3772.210510,4845.130920 3767.934444,4843.365885 3767.800357,4853.623093 3772.068938,4854.422507 3771.451193,4912.512286 3766.649044,4911.195318 3767.113655,4917.141185 3771.298650,4919.284316 3771.278171,4943.104540 3750.424971,4941.645546 3749.688760,4953.561285 3726.130075,4952.389717 3726.255496,4941.022598 3705.824932,4940.093237 3705.090942,4952.286458 3682.787807,4951.105288 3683.523827,4939.178442 3675.070227,4939.532624"/>
    <poly id="107087205#1" type="leisure" color="207,245,201" fill="1" layer="-2.00" shape="3675.070227,4939.532624 3675.647834,4909.392311 3671.302922,4902.055788 3669.414595,4896.476165 3668.854860,4894.793346 3669.029943,4873.325065 3671.175872,4868.069330 3673.319550,4863.623895 3676.092862,4859.961658 3676.498868,4813.206352 3694.832832,4813.596915 3692.296628,4809.287684 3700.626749,4808.412793 3710.831655,4808.067262 3725.420365,4807.954153 3732.298256,4808.167231 3741.890135,4809.180663 3744.040563,4810.007578 3741.894764,4814.186614 3764.686207,4814.398503 3772.255110,4816.704117 3772.210510,4845.130920 3767.934444,4843.365885 3767.800357,4853.623093 3772.068938,4854.422507 3771.451193,4912.512286 3766.649044,4911.195318 3767.113655,4917.141185 3771.298650,4919.284316 3771.278171,4943.104540 3750.424971,4941.645546 3749.688760,4953.561285 3726.130075,4952.389717 3726.255496,4941.022598 3705.824932,4940.093237 3705.090942,4952.286458 3682.787807,4951.105288 3683.523827,4939.178442 3675.070227,4939.532624"/>
    <poly id="107087205#2" type="sport" color="79,230,125" fill="1" layer="-2.00" shape="3675.070227,4939.532624 3675.647834,4909.392311 3671.302922,4902.055788 3669.414595,4896.476165 3668.854860,4894.793346 3669.029943,4873.325065 3671.175872,4868.069330 3673.319550,4863.623895 3676.092862,4859.961658 3676.498868,4813.206352 3694.832832,4813.596915 3692.296628,4809.287684 3700.626749,4808.412793 3710.831655,4808.067262 3725.420365,4807.954153 3732.298256,4808.167231 3741.890135,4809.180663 3744.040563,4810.007578 3741.894764,4814.186614 3764.686207,4814.398503 3772.255110,4816.704117 3772.210510,4845.130920 3767.934444,4843.365885 3767.800357,4853.623093 3772.068938,4854.422507 3771.451193,4912.512286 3766.649044,4911.195318 3767.113655,4917.141185 3771.298650,4919.284316 3771.278171,4943.104540 3750.424971,4941.645546 3749.688760,4953.561285 3726.130075,4952.389717 3726.255496,4941.022598 3705.824932,4940.093237 3705.090942,4952.286458 3682.787807,4951.105288 3683.523827,4939.178442 3675.070227,4939.532624"/>
    <poly id="107087208" type="building" color="255,230,230" fill="1" layer="-1.00" shape="4345.891955,4775.175844 4362.859116,4776.666273 4363.629703,4767.991473 4346.662608,4766.512141 4345.891955,4775.175844"/>
    <poly id="107087209" type="building" color="255,230,230" fill="1" layer="-1.00" shape="3847.735249,5102.060461 3910.244616,5102.331871 3910.357239,5085.958869 3847.846878,5085.576466 3847.735249,5102.060461"/>
    <poly id="107087211" type="building" color="255,230,230" fill="1" layer="-1.00" shape="4110.405648,5044.378612 4123.059939,5046.023815 4124.939341,5031.635175 4112.285028,5029.989968 4110.405648,5044.378612"/>
    <poly id="107087213" type="leisure" color="207,245,201" fill="1" layer="-2.00" shape="3637.135031,4973.481522 3661.307616,4973.415976 3661.191130,4931.992596 3637.026955,4932.058075 3637.135031,4973.481522"/>
    <poly id="107087213#1" type="sport" color="79,230,125" fill="1" layer="-2.00" shape="3637.135031,4973.481522 3661.307616,4973.415976 3661.191130,4931.992596 3637.026955,4932.058075 3637.135031,4973.481522"/>
    <poly id="107087214" type="leisure" color="207,245,201" fill="1" layer="-2.00" shape="3801.394443,5013.454620 3817.156248,5013.765487 3817.440839,4985.425619 3801.703911,4985.025760 3801.394443,5013.454620"/>
    <poly id="107087216" type="building" color="255,230,230" fill="1" layer="-1.00" shape="4364.462329,4683.860223 4402.761032,4685.597893 4404.180968,4654.640966 4365.882110,4652.903288 4364.462329,4683.860223"/>
    <poly id="107087218" type="tourism" color="207,245,201" fill="1" layer="-2.00" shape="4355.145465,4981.548828 4383.818590,4984.714378 4387.039049,4955.774880 4385.116723,4951.260924 4358.075075,4949.226127 4355.145465,4981.548828"/>
    <poly id="107087219" type="building" color="255,230,230" fill="1" layer="-1.00" shape="4364.107867,4776.878692 4380.791111,4778.104945 4382.950824,4748.951593 4366.267516,4747.725335 4364.107867,4776.878692"/>