<?xml version="1.0" encoding="UTF-8"?>

<!-- generated on 2023-04-25 15:43:52 by Eclipse SUMO duarouter Version 1.14.1
<configuration xmlns:xsi="http://www.w3.org/2001/XMLSchema-instance" xsi:noNamespaceSchemaLocation="http://sumo.dlr.de/xsd/duarouterConfiguration.xsd">

    <input>
        <net-file value="map.net.xml"/>
        <route-files value="map.trips.xml"/>
    </input>

    <output>
        <output-file value="map.rou.xml"/>
    </output>

    <report>
        <ignore-errors value="true"/>
    </report>

</configuration>
-->

<routes xmlns:xsi="http://www.w3.org/2001/XMLSchema-instance" xsi:noNamespaceSchemaLocation="http://sumo.dlr.de/xsd/routes_file.xsd">
    <vehicle id="0" depart="0.00">
        <route edges="26812131#0 26812131#1 30064875#0 30064875#1 30064875#2 30064875#3 30064875#4 -838013189 838013188#1 257453038 -257453039#3 -257453039#2"/>
    </vehicle>
    <vehicle id="1" depart="1.00">
        <route edges="-60110755#0 60110755#0 60110755#1 60110755#2 60110755#3 219487085#1 219487085#2 219487085#3 219487085#4 219487085#5 219487087 219439618#0 219439618#1 -42398806#4 -42398806#3 -42398806#2 60105882#0 60105882#1 60105872 -60105872"/>
    </vehicle>
    <vehicle id="2" depart="2.00">
        <route edges="422459788 219487085#2 219487085#3 219487085#4 219487085#5 219487086#0 219487086#1 219487086#2 219487086#3 219487086#4 219487086#5 219487086#6 219487086#7 156346935#0 143599453#0 -422119589#0 422119589#0"/>
    </vehicle>
    <vehicle id="3" depart="3.00">
        <route edges="60110714#1 422459782#2 422459782#3 422459782#4 -422459782#4"/>
    </vehicle>
    <vehicle id="4" depart="4.00">
        <route edges="143599468#0 143599468#1 -318612595 165743462#1 165743462#2 143599422#1 143599422#2 26812131#0 26812131#1 30064875#0 30064875#1 30064875#2 30064875#3 30064875#4 -838013189 -838013188#0 838013187 -257453039#4"/>
    </vehicle>
    <vehicle id="5" depart="5.00">
        <route edges="-60105853#4 -60105853#3 -60105853#2 -60105853#1 -60105853#0 240367930#2 240367930#3 240367930#4 240367930#5 156346934#0 156346934#1 156346934#2 156346934#3 156346934#4 156346934#5 165762555#0 165762555#1"/>
    </vehicle>
    <vehicle id="6" depart="6.00">
        <route edges="-257453039#3 -257453039#2 -257453039#1 -257453039#0 -934714246#1 -934714246#0 -934713612#2 -934713612#1 -352009353#0 -60105853#3 -60105853#2 -60105853#1"/>
    </vehicle>
    <vehicle id="7" depart="7.00">
        <route edges="26812136#1 150608623 26812131#0 26812131#1 30064875#0 30064875#1 30064875#2 30064875#3 30064875#4 30064875#5 30064875#6 1055449634 139339318#0 139339318#1 42399034#0 42399034#1 60110714#4 60110714#5 971146048#1 422459788 219487085#2"/>
    </vehicle>
    <vehicle id="8" depart="8.00">
        <route edges="-60105853#5 -60105853#4 -60105853#3 -60105853#2 -60105853#1 -60105853#0 240367930#2 240367930#3 240367930#4 240367930#5 156346934#0 156346934#1 156346934#2 156346934#3 156346934#4 156346934#5 156346934#6 156346934#7 156346934#8 150522819 26812136#0 26812136#1 150608623 1062532836 25446417#0"/>
    </vehicle>
    <vehicle id="9" depart="9.00">
        <route edges="46031346#0 46031346#1 46031346#2 -46031346#2 -46031346#1 -46031346#0 156346934#2 156346934#3 156346934#4 156346934#5 159956769 25446417#2 143599468#0 143599468#1 -318612595 165743462#1 165743462#2 -165743462#2 -165743462#1"/>
    </vehicle>
    <vehicle id="10" depart="10.00">
        <route edges="424858932#1 -424858932#1 -424858932#0 60105863#0 60105863#1 60105863#2 42399132#2 42399132#3 182042882#1 182042882#2 1055449634 139339318#0 167648259#1 167648259#2 167648259#3 849088033 -422459782#4 -422459782#3 422459782#3"/>
    </vehicle>
    <vehicle id="11" depart="11.00">
        <route edges="-934717405#2 -934717405#1 -934714249 257453039#2 257453039#3 -257453038 -838013188#1 838013189 30064875#5 30064875#6 1055449634 1055449633 219487086#0 219487086#1 219487086#2 219487086#3 -42399185#4 -42399185#3 -42399185#2 -42399185#1"/>
    </vehicle>
    <vehicle id="12" depart="12.00">
        <route edges="934714247#0 60105853#9 -934717405#1 -934714249 257453039#2 257453039#3 -257453038 -838013188#1 838013189 30064875#5 30064875#6 1055449634 139339318#0 139339318#1 42399034#0 42399034#1 42399034#2 42399034#3 42399034#4 42399034#5 962920588#0 -962920588#0"/>
    </vehicle>
    <vehicle id="13" depart="13.00">
        <route edges="-422459782#7 422459783#2 -422459783#2"/>
    </vehicle>
    <vehicle id="14" depart="14.00">
        <route edges="60105853#5 60105853#6 60105853#7 -934714246#2 257453039#0 257453039#1 257453039#2 257453039#3"/>
    </vehicle>
    <vehicle id="15" depart="15.00">
        <route edges="424858932#1 219439618#1 -42398806#4 -42398806#3 -42398806#2 -42398806#1 42398806#1"/>
    </vehicle>
    <vehicle id="16" depart="16.00">
        <route edges="167648259#8 167648259#9 167648259#10 143599453#0 422119589#1 30064875#1 30064875#2 30064875#3 30064875#4 -838013189 838013188#1 257453038 -257453039#3 -257453039#2 934714249 934717405#1 934717405#2 934717405#3"/>
    </vehicle>
    <vehicle id="17" depart="17.00">
        <route edges="1064239200 150522803 1064239199 150608626#0 150608626#1 150608626#2 150608626#3 150608626#4 422119590#0 30064875#0 30064875#1 30064875#2 30064875#3 30064875#4 30064875#5 30064875#6 1055449634 139339318#0 167648259#1 219487085#5"/>
    </vehicle>
    <vehicle id="19" depart="19.00">
        <route edges="60105863#2 42399132#2 42399132#3 182042882#1 182042882#2 1055449634 1055449633 219487086#0 219487086#1 219487086#2 219487086#3 219487086#4 219487086#5 219487086#6 219487086#7 26812136#0 26812136#1 150608623 26812131#0 26812131#1 30064875#0 30064875#1 30064875#2 30064875#3 30064875#4 -838013189 -838013188#0 838013187 257453039#5 257453039#6 257453039#7 -934714246#0 -934713612#2 -934713612#1 -352009353#0 -60105853#3 -60105853#2 -60105853#1 -60105853#0 240367930#2 240367930#3 240367930#4"/>
    </vehicle>
    <vehicle id="20" depart="20.00">
        <route edges="422459780#0 422459780#1 60110714#3 42399034#2 -305570896#0"/>
    </vehicle>
    <vehicle id="21" depart="21.00">
        <route edges="-60105853#9 60105853#9 934717405#2 934717405#3 934714248 -934713613#2 -934713613#1 -934713613#0"/>
    </vehicle>
    <vehicle id="22" depart="22.00">
        <route edges="-422459782#1 422459782#1 60110714#2 60110714#3 -42399034#1 219487085#4 219487085#5 219487087 219439618#0 -424858932#1 -424858932#0 60105863#0 60105863#1 -60105882#5 -60105882#4 -60105882#3"/>
    </vehicle>
    <vehicle id="23" depart="23.00">
        <route edges="-422459785#1 -962920588#1 -962920588#0 -42399034#5 -422459783#2 -422459782#6 849088032#0 849088032#1 167648259#5 -934717408#0 219487086#2 219487086#3 219487086#4 219487086#5 219487086#6 219487086#7 26812136#0 26812136#1 150608623 26812131#0 26812131#1 30064875#0 30064875#1 30064875#2 30064875#3 30064875#4 -838013189 838013188#1 257453038 -257453038 -838013188#1"/>
    </vehicle>
    <vehicle id="24" depart="24.00">
        <route edges="26812130 143599467#0 121781867 143599468#1 -318612595 165743462#1 165743462#2 143599422#1 143599422#2 26812131#0 26812131#1 30064875#0 30064875#1 30064875#2 30064875#3 30064875#4 -838013189 -838013188#0 838013187 257453039#5 257453039#6 257453039#7 -934714246#0 -934713612#2 -934713612#1 -352009353#0 -60105853#3 -60105853#2 -60105853#1 -60105853#0 240367930#2 240367930#3 240367930#4 121781871 47504770#1 156346929 121781860"/>
    </vehicle>
    <vehicle id="25" depart="25.00">
        <route edges="1055449633 219487086#0 219487086#1 219487086#2 219487086#3 219487086#4 219487086#5 219487086#6 219487086#7 26812136#0 26812136#1 150608623 26812131#0 26812131#1 30064875#0 30064875#1 30064875#2 30064875#3 30064875#4 -838013189 838013188#1 257453038 -257453039#3 -257453039#2 -257453039#1 -257453039#0 934714246#2 -60105853#7 -60105853#6"/>
    </vehicle>
    <vehicle id="26" depart="26.00">
        <route edges="-60110714#2 422459782#2 422459782#3 422459782#4 422459782#5 849088032#0 849088032#1 167648259#5 -934717408#0 219487086#2 219487086#3 219487086#4 219487086#5 219487086#6 219487086#7 26812136#0 26812136#1 150608623 26812131#0 26812131#1 30064875#0 30064875#1 30064875#2 30064875#3 30064875#4 -838013189 -838013188#0 838013187 257453039#5 934713613#1"/>
    </vehicle>
    <vehicle id="27" depart="27.00">
        <route edges="26812136#1 150608623 26812131#0 26812131#1 30064875#0 30064875#1 30064875#2 30064875#3 30064875#4 -838013189 -838013188#0 838013187 257453039#5 257453039#6"/>
    </vehicle>
    <vehicle id="28" depart="28.00">
        <route edges="-42411413 249229241#1 1064239199 150608626#0 150608626#1 150608626#2 150608626#3 150608626#4 422119590#0 30064875#0 30064875#1 30064875#2 30064875#3 30064875#4 30064875#5 30064875#6 219439618#0 219439618#1 -42398806#4 -42398806#3 -42398806#2 -42398806#1 -42398806#0 42398806#0"/>
    </vehicle>
    <vehicle id="29" depart="29.00">
        <route edges="-42399185#3 42399185#3 42399185#4 219487086#4 219487086#5 219487086#6 219487086#7 26812136#0 26812136#1 150608623 26812131#0 26812131#1 30064875#0 30064875#1 30064875#2 30064875#3 30064875#4 30064875#5 30064875#6 1055449634 139339318#0 139339318#1 139339318#2"/>
    </vehicle>
    <vehicle id="30" depart="30.00">
        <route edges="962920588#2 -962920588#2 -962920588#1 -962920588#0 -42399034#5 -422459783#2 -422459782#6 849088032#0 849088032#1 167648259#5 -934717408#0 219487086#2 219487086#3 219487086#4 219487086#5 219487086#6 219487086#7 26812136#0 26812136#1 150608623 26812131#0 26812131#1 30064875#0 30064875#1"/>
    </vehicle>
    <vehicle id="31" depart="31.00">
        <route edges="219487085#2 219487085#3 42399034#1 -60110714#3 -60110714#2 -60110714#1 -60110714#0 422459778"/>
    </vehicle>
    <vehicle id="32" depart="32.00">
        <route edges="60105853#3 -60105853#3 -60105853#2 -60105853#1 -60105853#0 240367930#2 240367930#3 240367930#4 240367930#5 156346934#0 156346934#1 156346934#2 156346934#3 156346934#4 156346934#5 156346934#6 156346934#7 156346934#8 150522819 156346935#0 156346935#1 156346935#2 156346935#3 -60110800#1 -60110800#0 60110711#1 -46032852#1 107050557 -42399185#2 42399185#2"/>
    </vehicle>
    <vehicle id="33" depart="33.00">
        <route edges="-60105853#9 60105853#9 934717405#2 934717405#3 934714248 -934713613#2 -934713613#1 -257453039#5"/>
    </vehicle>
    <vehicle id="34" depart="34.00">
        <route edges="-934714239#1 -934714239#0 60105853#6 60105853#7 -934714246#2 257453039#0 257453039#1 257453039#2 257453039#3 -257453038 -838013188#1 838013189 30064875#5 30064875#6 1055449634 139339318#0 139339318#1 42399034#0 42399034#1 42399034#2 305570896#1 305570896#2 305570896#3 60110755#3 -60110755#3"/>
    </vehicle>
    <vehicle id="35" depart="35.00">
        <route edges="-60105853#0 60105853#0 60105853#1 60105853#2 60105853#3 60105853#4 60105853#5 60105853#6 60105853#7 60105853#8 934714247#1 934714247#2 934713613#4"/>
    </vehicle>
    <vehicle id="36" depart="36.00">
        <route edges="60105882#5 60105863#2 42399132#2 42399132#3 182042882#1 182042882#2 1055449634 1055449633 219487086#0 219487086#1 219487086#2 219487086#3 219487086#4 219487086#5 219487086#6 219487086#7 26812136#0 26812136#1 150608623 26812131#0 26812131#1 30064875#0 30064875#1 30064875#2 30064875#3 30064875#4 -838013189 838013188#1 257453038 -257453039#3 934713613#2 -934714248"/>
    </vehicle>
    <vehicle id="38" depart="38.00">
        <route edges="760450875 240367931#1 150522794 1064239200 150522803 1064239199 150608626#0 150608626#1 150608626#2 150608626#3 150608626#4 422119590#0 30064875#0 30064875#1 30064875#2 30064875#3 30064875#4 -838013189 -838013188#0 838013187 257453039#5 257453039#6 257453039#7 -934714246#0 -934713612#2 -934713612#1 -352009353#0 -60105853#3 -60105853#2 -60105853#1 -60105853#0 240367930#2 240367930#3 240367930#4 121781871 47504770#1 156346929"/>
    </vehicle>
    <vehicle id="39" depart="39.00">
        <route edges="-60110714#1 60110714#1 422459782#2 422459782#3 422459782#4 422459782#5 849088032#0 849088032#1 167648259#5 167648259#6 167648259#7 -42399185#3 -107050557 46032852#1 -60110711#1"/>
    </vehicle>
    <vehicle id="40" depart="40.00">
        <route edges="219487085#4 219487085#5 219487087 1055449634 139339318#0 139339318#1 42399034#0 42399034#1 42399034#2 42399034#3 422459787#0 -60110755#1"/>
    </vehicle>
    <vehicle id="41" depart="41.00">
        <route edges="240367920 150608626#0 150608626#1 150608626#2 150608626#3 150608626#4 422119590#0 30064875#0 30064875#1 30064875#2 30064875#3 30064875#4 30064875#5 30064875#6 1055449634 139339318#0 139339318#1 42399034#0 42399034#1 60110714#4 60110714#5"/>
    </vehicle>
    <vehicle id="43" depart="43.00">
        <route edges="973219089#1 -42399036#4 -42399036#3 60110755#0 60110755#1 60110755#2 60110755#3 219487085#1 219487085#2 219487085#3 219487085#4 219487085#5 219487087 1055449634 139339318#0 167648259#1"/>
    </vehicle>
    <vehicle id="44" depart="44.00">
        <route edges="-422459782#6 -422459782#5 -422459782#4 -422459782#3 305570896#0 305570896#1 -305570896#1"/>
    </vehicle>
    <vehicle id="45" depart="45.00">
        <route edges="-422459788 422459788 219487085#2 219487085#3 219487085#4 219487085#5 219487086#0 219487086#1 219487086#2 219487086#3 219487086#4 219487086#5 219487086#6 219487086#7 26812136#0"/>
    </vehicle>
    <vehicle id="46" depart="46.00">
        <route edges="42399185#4 219487086#4 219487086#5 219487086#6 219487086#7 156346935#0 156346935#1 156346935#2 156346935#3 156346935#4 26812140 150522781#0 150522805"/>
    </vehicle>
    <vehicle id="47" depart="47.00">
        <route edges="-422119589#1 422119589#1 30064875#1 30064875#2 30064875#3 30064875#4 30064875#5 30064875#6 1055449634 139339318#0 139339318#1 139339318#2 139339318#3"/>
    </vehicle>
    <vehicle id="48" depart="48.00">
        <route edges="973219089#1 -42399036#4 -42399036#3 -42399036#2 -42399036#1 -42399036#0 -42399034#6 -42399034#5 -422459783#2 -422459782#6 849088032#0 849088032#1 167648259#5 167648259#6 167648259#7 167648259#8 167648259#9"/>
    </vehicle>
    <vehicle id="49" depart="49.00">
        <route edges="934717405#2 934717405#3 934717405#4 934717405#0 -934714249 257453039#2 257453039#3 -257453038 -838013188#1 838013189 30064875#5 30064875#6 219439618#0 219439618#1 -42398806#4 -42398806#3 -42398806#2 60105882#0 60105882#1 60105872"/>
    </vehicle>
    <vehicle id="51" depart="51.00">
        <route edges="305570896#3 60110755#3 219487085#1 219487085#2 219487085#3 219487085#4 219487085#5 219487087 219439618#0"/>
    </vehicle>
    <vehicle id="52" depart="52.00">
        <route edges="-60110714#2 422459782#2 422459782#3 422459782#4 422459782#5 849088032#0 849088032#1 167648259#5 -934717408#0 219487086#2 219487086#3 219487086#4 219487086#5 219487086#6 219487086#7 26812136#0 26812136#1 150608623 26812131#0 26812131#1 30064875#0 30064875#1"/>
    </vehicle>
    <vehicle id="53" depart="53.00">
        <route edges="-422459789 60110714#1 422459782#2 422459782#3 422459782#4 422459782#5 849088032#0 849088032#1 167648259#5 -934717408#0 219487086#2 219487086#3 219487086#4 219487086#5 219487086#6 219487086#7 26812136#0 26812136#1 150608623 26812131#0 26812131#1 150522819"/>
    </vehicle>
    <vehicle id="54" depart="54.00">
        <route edges="150608623 26812131#0 26812131#1 30064875#0 30064875#1 30064875#2 30064875#3 30064875#4 -838013189 -838013188#0 838013187 257453039#5 257453039#6 257453039#7 934714246#1"/>
    </vehicle>
    <vehicle id="55" depart="55.00">
        <route edges="60105882#5 60105863#2 42399132#2 42399132#3 182042882#1 182042882#2 1055449634 139339318#0 139339318#1 42399034#0 42399034#1 42399034#2 42399034#3 422459787#0 -60110755#1"/>
    </vehicle>
    <vehicle id="56" depart="56.00">
        <route edges="159956769 25446417#2 143599468#0 143599468#1 -318612595 165743462#1 165743462#2 143599422#1 143599422#2 26812131#0 26812131#1 150522819 156346935#0 156346935#1 156346935#2 156346935#3 -60110800#1 -60110800#0 60110711#1 -46032852#1"/>
    </vehicle>
    <vehicle id="57" depart="57.00">
        <route edges="60110800#1 -60110800#1 -60110800#0 60110711#1 -46032852#1 107050557 42399185#3 42399185#4 219487086#4 219487086#5 219487086#6 219487086#7 26812136#0 26812136#1 150608623 26812131#0 26812131#1 30064875#0 30064875#1 30064875#2 30064875#3 30064875#4 30064875#5 30064875#6 219439618#0 219439618#1 -42398806#4 -42398806#3 -42398806#2 60105882#0 60105882#1 60105872 60105882#3"/>
    </vehicle>
    <vehicle id="58" depart="58.00">
        <route edges="-934713612#1 -352009353#0 -60105853#3 -60105853#2 -60105853#1 -60105853#0 240367930#2 240367930#3 240367930#4 240367930#5 156346934#0 156346934#1 156346934#2 156346934#3 156346934#4 156346934#5 156346934#6 156346934#7 156346934#8 30064875#0"/>
    </vehicle>
    <vehicle id="59" depart="59.00">
        <route edges="25446417#1 25446417#2 143599468#0 143599468#1 -318612595 165743462#1 165743462#2 143599422#1 143599422#2 26812131#0 26812131#1 150522819 156346935#0 156346935#1 156346935#2 156346935#3 -60110800#1 -60110800#0 60110711#1 -46032852#1 107050557 -42399185#2 -42399185#1 -42399185#0"/>
    </vehicle>
    <vehicle id="60" depart="60.00">
        <route edges="42399034#6 42399036#0 -42399036#0 -42399034#6 -42399034#5 -42399034#4 -42399034#3 -42399034#2 -42399034#1 219487085#4 219487085#5 219487087 219439618#0 219439618#1"/>
    </vehicle>
    <vehicle id="62" depart="62.00">
        <route edges="-107050557 107050557 42399185#3 42399185#4 219487086#4 219487086#5 219487086#6 219487086#7 26812136#0 26812136#1 150608623 26812131#0 26812131#1 30064875#0 30064875#1 30064875#2 30064875#3 30064875#4 -838013189 838013188#1 257453038 -257453039#3 934713613#2 -934714248 -934717405#3 -934717405#2"/>
    </vehicle>
    <vehicle id="63" depart="63.00">
        <route edges="-257453039#0 257453039#0 257453039#1 257453039#2 257453039#3 -257453038 -838013188#1 838013189 30064875#5 30064875#6 1055449634 1055449633 219487086#0 219487086#1 219487086#2 219487086#3 -42399185#4 -42399185#3 -42399185#2 849088063"/>
    </vehicle>
    <vehicle id="64" depart="64.00">
        <route edges="60105892 60105894#1 60105851#1"/>
    </vehicle>
    <vehicle id="65" depart="65.00">
        <route edges="-934713613#2 -257453039#2 -257453039#1 -257453039#0 -934714246#1 -934714246#0 -934713612#2 -934714239#2 -352009351#1"/>
    </vehicle>
    <vehicle id="66" depart="66.00">
        <route edges="60105892 -60105892 60105882#4 60105882#5 60105863#2 42399132#2 42399132#3 182042882#1 182042882#2 1055449634 1055449633 219487086#0 219487086#1 219487086#2 219487086#3 219487086#4 219487086#5 219487086#6 219487086#7 26812136#0 26812136#1 150608623 26812131#0 26812131#1 30064875#0 30064875#1 30064875#2 30064875#3 30064875#4 -838013189 838013188#1 257453038 -257453039#3 -257453039#2 -257453039#1 -257453039#0 934714246#2 -60105853#7 -60105853#6 934714239#0 934714239#1"/>
    </vehicle>
    <vehicle id="67" depart="67.00">
        <route edges="-422459782#4 -422459782#3 422459782#3 422459782#4 422459782#5 849088032#0 849088032#1 167648259#5 -934717408#0 219487086#2 219487086#3 219487086#4 219487086#5 219487086#6 219487086#7 156346935#0 156346935#1 156346935#2 156346935#3"/>
    </vehicle>
    <vehicle id="68" depart="68.00">
        <route edges="-422459778 60110714#0 60110714#1 60110714#2 60110714#3 42399034#2 42399034#3 42399034#4 42399034#5 42399034#6 42399036#0 42399036#1 42399036#2 42399036#3 42399036#4"/>
    </vehicle>
    <vehicle id="69" depart="69.00">
        <route edges="42399036#0 -42399036#0 -42399034#6 -42399034#5 -42399034#4"/>
    </vehicle>
    <vehicle id="70" depart="70.00">
        <route edges="156346934#2 156346934#3 156346934#4 156346934#5 156346934#6 156346934#7 156346934#8 30064875#0 30064875#1 30064875#2 30064875#3 30064875#4 30064875#5 30064875#6 1055449634 139339318#0 139339318#1 42399034#0 219487085#4"/>
    </vehicle>
    <vehicle id="71" depart="71.00">
        <route edges="-60110714#2 60110714#2 60110714#3 -42399034#1 219487085#4 219487085#5 219487087 219439618#0 219439618#1 -42398806#4 -42398806#3 -42398806#2 60105882#0 60105894#0 -60105892 60105882#4"/>
    </vehicle>
    <vehicle id="72" depart="72.00">
        <route edges="143599468#1 -318612595 165743462#1 165743462#2 143599422#1 143599422#2 26812131#0 26812131#1 30064875#0 30064875#1 30064875#2 30064875#3 30064875#4 -838013189 838013188#1 257453038 -257453039#3 -257453039#2 -257453039#1 -257453039#0 934714246#2 -60105853#7"/>
    </vehicle>
    <vehicle id="73" depart="73.00">
        <route edges="167649023 1055449633 219487087 219439618#0 219439618#1 -42398806#4 -42398806#3 -42398806#2 -42398806#1 42398806#1"/>
    </vehicle>
    <vehicle id="75" depart="75.00">
        <route edges="973219089#0 973219089#1 -42399036#4 -42399036#3 -42399036#2 -42399036#1 -42399036#0 -42399034#6 -42399034#5 -422459783#2 -422459782#6 849088032#0 849088032#1 167648259#5 -934717408#0 219487086#2 219487086#3 219487086#4 219487086#5 219487086#6 219487086#7 26812136#0 26812136#1 150608623 26812131#0 26812131#1 30064875#0 30064875#1 30064875#2 30064875#3 30064875#4 30064875#5"/>
    </vehicle>
    <vehicle id="76" depart="76.00">
        <route edges="150522807 150608626#1 150608626#2 150608626#3 150608626#4 422119590#0 30064875#0 30064875#1 30064875#2 30064875#3 30064875#4 30064875#5 30064875#6 1055449634 139339318#0 167648259#1 167648259#2 167648259#3 167648259#4"/>
    </vehicle>
    <vehicle id="77" depart="77.00">
        <route edges="-42398806#4 -42398806#3 -42398806#2 60105882#0 60105882#1 60105872 -60105872"/>
    </vehicle>
    <vehicle id="78" depart="78.00">
        <route edges="-934717405#1 -934714249 257453039#2 257453039#3 -257453038 -838013188#1 838013189 30064875#5 30064875#6 1055449634 1055449633 219487086#0 219487086#1 219487086#2 219487086#3 219487086#4 219487086#5 219487086#6 219487086#7 26812136#0 26812136#1 150608623 1062532836 25446417#0"/>
    </vehicle>
    <vehicle id="79" depart="79.00">
        <route edges="-60105863#0 424858932#0 424858932#1 -424858932#1 -424858932#0 60105863#0 60105863#1 -60105863#1"/>
    </vehicle>
    <vehicle id="80" depart="80.00">
        <route edges="-422459780#0 422459782#1 422459782#2 422459782#3 422459782#4 422459782#5 849088032#0 849088032#1 167648259#5 -934717408#0 219487086#2 219487086#3 219487086#4 219487086#5 219487086#6 219487086#7 26812136#0 26812136#1"/>
    </vehicle>
    <vehicle id="81" depart="81.00">
        <route edges="-60105853#9 60105853#9 -934717405#1 -934714249 257453039#2 257453039#3 -257453038 -838013188#1 838013189 30064875#5 30064875#6 1055449634 139339318#0 139339318#1 42399034#0 42399034#1 42399034#2 305570896#1 305570896#2 305570896#3 60110755#3"/>
    </vehicle>
    <vehicle id="82" depart="82.00">
        <route edges="60105863#1 60105863#2 42399132#2 42399132#3 182042882#1 182042882#2 1055449634 139339318#0 139339318#1 42399034#0 42399034#1 -60110714#3 -60110714#2 -422459782#1 -422459782#0 -422459778"/>
    </vehicle>
    <vehicle id="83" depart="83.00">
        <route edges="-60105872 -60105882#1 60105894#0 -60105892 60105882#4 60105882#5 60105863#2 42399132#2 42399132#3 182042882#1 182042882#2 1055449634 1055449633 219487086#0 219487086#1 219487086#2 219487086#3 219487086#4 219487086#5 219487086#6 219487086#7 26812136#0 26812136#1 150608623 26812131#0 26812131#1 30064875#0 30064875#1 30064875#2 30064875#3 30064875#4 -838013189 -838013188#0 838013187 257453039#5 257453039#6 257453039#7 -934714246#0 -934713612#2 -934714239#2 -352009351#1 352009351#1"/>
    </vehicle>
    <vehicle id="84" depart="84.00">
        <route edges="-60105853#2 -60105853#1 -60105853#0 240367930#2 240367930#3 240367930#4 240367930#5 156346934#0 156346934#1 156346934#2 156346934#3 156346934#4 156346934#5 156346934#6 156346934#7 156346934#8 30064875#0 30064875#1 30064875#2 30064875#3 30064875#4 30064875#5 30064875#6 1055449634 139339318#0 139339318#1 42399034#0 42399034#1 42399034#2 42399034#3 42399034#4 42399034#5 42399034#6 42399036#0 -42399036#0 -42399034#6"/>
    </vehicle>
    <vehicle id="86" depart="86.00">
        <route edges="156346934#1 156346934#2 156346934#3 156346934#4 156346934#5 156346934#6 156346934#7 156346934#8 150522819 156346935#0 156346935#1 156346935#2 156346935#3 156346935#4 150522812#0 150522812#1 -42399915#1 42399915#1"/>
    </vehicle>
    <vehicle id="88" depart="88.00">
        <route edges="-422459783#2 -422459782#6 849088032#0 849088032#1 167648259#5 -934717408#0 219487086#2 219487086#3 219487086#4 219487086#5 219487086#6 219487086#7 156346935#0 156346935#1 156346935#2 156346935#3 156346935#4 150522812#0 150522812#1 150522812#2"/>
    </vehicle>
    <vehicle id="89" depart="89.00">
        <route edges="143599468#1 -318612595 165743462#1 165743462#2 143599422#1 143599422#2 26812131#0 26812131#1 30064875#0 30064875#1 30064875#2 30064875#3 30064875#4 -838013189 -838013188#0 838013187 257453039#5 257453039#6 257453039#7 -934714246#0 -934713612#2 -934713612#1 -352009353#0 -60105853#3 -60105853#2 -60105853#1 -60105853#0 240367930#2 240367930#3 240367930#4 240367930#5 156346934#0 156346934#1 156346934#2 156346934#3"/>
    </vehicle>
    <vehicle id="90" depart="90.00">
        <route edges="422459785#0 -962920588#1 -962920588#0 -42399034#5 -422459783#2 -422459782#6 849088032#0 849088032#1 167648259#5 -934717408#0 219487086#2 219487086#3 219487086#4 219487086#5 219487086#6 219487086#7 26812136#0 26812136#1 150608623 26812131#0 26812131#1 30064875#0 30064875#1 30064875#2 30064875#3 30064875#4 -838013189 -838013188#0 838013187 257453039#5 257453039#6 257453039#7 -934714246#0 -934713612#2 -934713612#1 352009353#1"/>
    </vehicle>
    <vehicle id="91" depart="91.00">
        <route edges="962920588#0 962920588#1 -422459785#0"/>
    </vehicle>
    <vehicle id="92" depart="92.00">
        <route edges="143599422#1 143599422#2 26812131#0 26812131#1 30064875#0 30064875#1 30064875#2 30064875#3 30064875#4 30064875#5 30064875#6 1055449634 139339318#0 139339318#1 42399034#0 42399034#1 42399034#2 42399034#3 42399034#4 42399034#5 962920588#0 962920588#1 -962920588#1"/>
    </vehicle>
    <vehicle id="93" depart="93.00">
        <route edges="60105863#2 42399132#2 42399132#3 182042882#1 182042882#2 1055449634 139339318#0 139339318#1 42399034#0 42399034#1 -60110714#3 -60110714#2 -60110714#1 -60110714#0"/>
    </vehicle>
    <vehicle id="95" depart="95.00">
        <route edges="143599468#0 143599468#1 -318612595 165743462#1 165743462#2 143599422#1 143599422#2 26812131#0 26812131#1 30064875#0 30064875#1 30064875#2 30064875#3 30064875#4 -838013189 838013188#1 257453038 -257453038 -838013188#1"/>
    </vehicle>
    <vehicle id="96" depart="96.00">
        <route edges="-60105882#5 60105882#5 60105863#2 42399132#2 42399132#3 182042882#1 182042882#2 1055449634 139339318#0 167648259#1 167648259#2 167648259#3 849088033"/>
    </vehicle>
    <vehicle id="98" depart="98.00">
        <route edges="219439618#0 -424858932#1 -424858932#0 60105863#0 60105863#1 60105863#2 42399132#2 42399132#3 182042882#1 182042882#2 1055449634 139339318#0 139339318#1 42399034#0 42399034#1 42399034#2 305570896#1 305570896#2 305570896#3 -305570896#3"/>
    </vehicle>
    <vehicle id="99" depart="99.00">
        <route edges="973219090 973219089#1 -42399036#4 -42399036#3 -42399036#2 -42399036#1 -42399036#0 -42399034#6 -42399034#5 -422459783#2 -422459782#6 849088032#0 849088032#1 167648259#5 -934717408#0 219487086#2 219487086#3 219487086#4 219487086#5 219487086#6 219487086#7 26812136#0 26812136#1 150608623 26812131#0 26812131#1 30064875#0 30064875#1 30064875#2 30064875#3 30064875#4 -838013189 -838013188#0 838013187 257453039#5 257453039#6 257453039#7 -934714246#0 -934713612#2 -934713612#1 -352009353#0 -60105853#3 -60105853#2 -60105853#1 -60105853#0 60105853#0 60105853#1"/>
    </vehicle>
    <vehicle id="100" depart="100.00">
        <route edges="934717405#1 934717405#2 934717405#3 934717405#4 934717405#0 -934714249 257453039#2 257453039#3 -257453038 -838013188#1 838013189 30064875#5 30064875#6 1055449634 1055449633 219487086#0 219487086#1 934717408#0 167648259#6 46033018#0 849088062"/>
    </vehicle>
    <vehicle id="101" depart="101.00">
        <route edges="60105853#5 -60105853#5 -60105853#4 -60105853#3 -60105853#2 -60105853#1 -60105853#0 240367930#2 240367930#3 240367930#4 121781871 47504770#1 156346929 121781860 26812142 150522781#0 150522805 150522812#1 -42399915#1"/>
    </vehicle>
    <vehicle id="102" depart="102.00">
        <route edges="156346934#7 156346934#8 30064875#0 30064875#1 30064875#2 30064875#3 30064875#4 -838013189 838013188#1 257453038 -257453039#3 -257453039#2 934714249 934717405#1 -60105853#9 -60105853#8"/>
    </vehicle>
    <vehicle id="103" depart="103.00">
        <route edges="143599422#0 143599422#1 143599422#2 26812131#0 26812131#1 30064875#0 30064875#1 30064875#2 30064875#3 30064875#4 -838013189 -838013188#0 838013187 257453039#5 257453039#6 257453039#7 -934714246#0 -934713612#2 -934713612#1 -352009353#0"/>
    </vehicle>
    <vehicle id="104" depart="104.00">
        <route edges="107050557 42399185#3 42399185#4 219487086#4 219487086#5 219487086#6 219487086#7 26812136#0 26812136#1 150608623 26812131#0 26812131#1 30064875#0 30064875#1 30064875#2 30064875#3 30064875#4 30064875#5 30064875#6 1055449634 1055449633 219487086#0 219487086#1 934717408#0"/>
    </vehicle>
    <vehicle id="105" depart="105.00">
        <route edges="-60110714#2 422459782#2 422459782#3 422459782#4 422459782#5 849088032#0 849088032#1 167648259#5 167648259#6 167648259#7 -42399185#3 -42399185#2 -42399185#1 -42399185#0 42399915#0 42399915#1"/>
    </vehicle>
    <vehicle id="107" depart="107.00">
        <route edges="934714247#0 60105853#9 -934717405#1 -934714249 257453039#2 257453039#3 -257453038 -838013188#1 838013189 30064875#5 30064875#6 1055449634 139339318#0 139339318#1 42399034#0 42399034#1 42399034#2 305570896#1 305570896#2 971146048#0"/>
    </vehicle>
    <vehicle id="108" depart="108.00">