<?xml version="1.0" encoding="UTF-8"?>

<!-- generated on 2023-05-15 10:38:41 by Eclipse SUMO netedit Version 1.14.1
<configuration xmlns:xsi="http://www.w3.org/2001/XMLSchema-instance" xsi:noNamespaceSchemaLocation="http://sumo.dlr.de/xsd/netconvertConfiguration.xsd">

    <input>
        <sumo-net-file value="H:\work_projects\network_slicing\ns\Environment\Area2\map.net.xml"/>
    </input>

    <output>
        <output-file value="H:\work_projects\network_slicing\ns\Environment\Area2\map.net.xml"/>
    </output>

    <processing>
        <geometry.min-radius.fix.railways value="false"/>
        <geometry.max-grade.fix value="false"/>
        <offset.disable-normalization value="true"/>
        <lefthand value="false"/>
    </processing>

    <junctions>
        <no-turnarounds value="true"/>
        <junctions.corner-detail value="5"/>
        <junctions.limit-turn-speed value="5.5"/>
        <rectangular-lane-cut value="false"/>
    </junctions>

    <pedestrian>
        <walkingareas value="false"/>
    </pedestrian>

</configuration>
-->

<net version="1.9" junctionCornerDetail="5" limitTurnSpeed="5.50" xmlns:xsi="http://www.w3.org/2001/XMLSchema-instance" xsi:noNamespaceSchemaLocation="http://sumo.dlr.de/xsd/net_file.xsd">

    <location netOffset="-437203.78,-4418435.12" convBoundary="0.00,0.00,8728.26,10447.40" origBoundary="116.261341,39.914284,116.554125,40.007803" projParameter="+proj=utm +zone=50 +ellps=WGS84 +datum=WGS84 +units=m +no_defs"/>

    <type id="highway.bridleway" priority="1" numLanes="1" speed="2.78" allow="pedestrian" oneway="1" width="2.00"/>
    <type id="highway.bus_guideway" priority="1" numLanes="1" speed="27.78" allow="bus" oneway="1"/>
    <type id="highway.cycleway" priority="1" numLanes="1" speed="5.56" allow="bicycle" oneway="0" width="1.00"/>
    <type id="highway.footway" priority="1" numLanes="1" speed="2.78" allow="pedestrian" oneway="1" width="2.00"/>
    <type id="highway.ford" priority="1" numLanes="1" speed="2.78" allow="army" oneway="0"/>
    <type id="highway.living_street" priority="2" numLanes="1" speed="2.78" disallow="tram rail_urban rail rail_electric rail_fast ship" oneway="0"/>
    <type id="highway.motorway" priority="14" numLanes="2" speed="39.44" allow="private emergency authority army vip passenger hov taxi bus coach delivery truck trailer motorcycle evehicle custom1 custom2" oneway="1"/>
    <type id="highway.motorway_link" priority="9" numLanes="1" speed="22.22" allow="private emergency authority army vip passenger hov taxi bus coach delivery truck trailer motorcycle evehicle custom1 custom2" oneway="1"/>
    <type id="highway.path" priority="1" numLanes="1" speed="5.56" allow="pedestrian bicycle" oneway="0" width="2.00"/>
    <type id="highway.pedestrian" priority="1" numLanes="1" speed="2.78" allow="pedestrian" oneway="1" width="2.00"/>
    <type id="highway.primary" priority="12" numLanes="2" speed="27.78" disallow="tram rail_urban rail rail_electric rail_fast ship" oneway="0"/>
    <type id="highway.primary_link" priority="7" numLanes="1" speed="22.22" disallow="tram rail_urban rail rail_electric rail_fast ship" oneway="0"/>
    <type id="highway.raceway" priority="15" numLanes="2" speed="83.33" allow="vip" oneway="0"/>
    <type id="highway.residential" priority="3" numLanes="1" speed="13.89" disallow="tram rail_urban rail rail_electric rail_fast ship" oneway="0"/>
    <type id="highway.secondary" priority="11" numLanes="1" speed="27.78" disallow="tram rail_urban rail rail_electric rail_fast ship" oneway="0"/>
    <type id="highway.secondary_link" priority="6" numLanes="1" speed="22.22" disallow="tram rail_urban rail rail_electric rail_fast ship" oneway="0"/>
    <type id="highway.service" priority="1" numLanes="1" speed="5.56" allow="pedestrian delivery bicycle" oneway="0"/>
    <type id="highway.stairs" priority="1" numLanes="1" speed="1.39" allow="pedestrian" oneway="1" width="2.00"/>
    <type id="highway.step" priority="1" numLanes="1" speed="1.39" allow="pedestrian" oneway="1" width="2.00"/>
    <type id="highway.steps" priority="1" numLanes="1" speed="1.39" allow="pedestrian" oneway="1" width="2.00"/>
    <type id="highway.tertiary" priority="10" numLanes="1" speed="22.22" disallow="tram rail_urban rail rail_electric rail_fast ship" oneway="0"/>
    <type id="highway.tertiary_link" priority="5" numLanes="1" speed="22.22" disallow="tram rail_urban rail rail_electric rail_fast ship" oneway="0"/>
    <type id="highway.track" priority="1" numLanes="1" speed="5.56" allow="pedestrian motorcycle moped bicycle" oneway="0"/>
    <type id="highway.trunk" priority="13" numLanes="2" speed="27.78" disallow="pedestrian bicycle tram rail_urban rail rail_electric rail_fast ship" oneway="0"/>
    <type id="highway.trunk_link" priority="8" numLanes="1" speed="22.22" disallow="pedestrian bicycle tram rail_urban rail rail_electric rail_fast ship" oneway="0"/>
    <type id="highway.unclassified" priority="4" numLanes="1" speed="13.89" disallow="tram rail_urban rail rail_electric rail_fast ship" oneway="0"/>
    <type id="highway.unsurfaced" priority="1" numLanes="1" speed="8.33" disallow="tram rail_urban rail rail_electric rail_fast ship" oneway="0"/>
    <type id="railway.highspeed" priority="21" numLanes="1" speed="69.44" allow="rail_fast" oneway="1"/>
    <type id="railway.light_rail" priority="19" numLanes="1" speed="27.78" allow="rail_urban" oneway="1"/>
    <type id="railway.preserved" priority="16" numLanes="1" speed="27.78" allow="rail" oneway="1"/>
    <type id="railway.rail" priority="20" numLanes="1" speed="44.44" allow="rail" oneway="1"/>
    <type id="railway.subway" priority="18" numLanes="1" speed="27.78" allow="rail_urban" oneway="1"/>
    <type id="railway.tram" priority="17" numLanes="1" speed="13.89" allow="tram" oneway="1"/>

    <edge id=":10761298768_0" function="internal">
        <lane id=":10761298768_0_0" index="0" disallow="tram rail_urban rail rail_electric rail_fast ship" speed="22.22" length="5.96" shape="4272.07,5749.56 4266.52,5747.38"/>
        <lane id=":10761298768_0_1" index="1" disallow="tram rail_urban rail rail_electric rail_fast ship" speed="22.22" length="5.96" shape="4273.24,5746.58 4267.68,5744.40"/>
        <lane id=":10761298768_0_2" index="2" disallow="tram rail_urban rail rail_electric rail_fast ship" speed="22.22" length="5.96" shape="4274.41,5743.60 4268.85,5741.42"/>
    </edge>
    <edge id=":10761298769_0" function="internal">
        <lane id=":10761298769_0_0" index="0" disallow="tram rail_urban rail rail_electric rail_fast ship" speed="22.22" length="5.90" shape="4280.98,5698.39 4286.49,5700.50"/>
        <lane id=":10761298769_0_1" index="1" disallow="tram rail_urban rail rail_electric rail_fast ship" speed="22.22" length="5.90" shape="4279.84,5701.38 4285.34,5703.49"/>
        <lane id=":10761298769_0_2" index="2" disallow="tram rail_urban rail rail_electric rail_fast ship" speed="22.22" length="5.90" shape="4278.69,5704.36 4284.19,5706.48"/>
    </edge>
    <edge id=":10761298770_0" function="internal">
        <lane id=":10761298770_0_0" index="0" disallow="pedestrian tram rail_urban rail rail_electric rail_fast ship" speed="27.78" length="4.43" shape="4305.49,5700.94 4306.84,5696.71"/>
        <lane id=":10761298770_0_1" index="1" disallow="pedestrian tram rail_urban rail rail_electric rail_fast ship" speed="27.78" length="4.43" shape="4308.54,5701.91 4309.89,5697.68"/>
    </edge>
    <edge id=":10761298771_0" function="internal">
        <lane id=":10761298771_0_0" index="0" disallow="pedestrian tram rail_urban rail rail_electric rail_fast ship" speed="27.78" length="5.28" shape="4328.75,5702.31 4327.23,5707.36"/>
        <lane id=":10761298771_0_1" index="1" disallow="pedestrian tram rail_urban rail rail_electric rail_fast ship" speed="27.78" length="5.28" shape="4325.69,5701.38 4324.16,5706.44"/>
    </edge>
    <edge id=":10761298772_0" function="internal">
        <lane id=":10761298772_0_0" index="0" disallow="tram rail_urban rail rail_electric rail_fast ship" speed="22.22" length="5.07" shape="4340.53,5704.56 4339.12,5709.42"/>
    </edge>
    <edge id=":10761298773_0" function="internal">
        <lane id=":10761298773_0_0" index="0" disallow="tram rail_urban rail rail_electric rail_fast ship" speed="22.22" length="5.62" shape="4342.71,5715.78 4348.28,5716.58"/>
        <lane id=":10761298773_0_1" index="1" disallow="tram rail_urban rail rail_electric rail_fast ship" speed="22.22" length="5.62" shape="4342.26,5718.95 4347.83,5719.74"/>
        <lane id=":10761298773_0_2" index="2" disallow="tram rail_urban rail rail_electric rail_fast ship" speed="22.22" length="5.62" shape="4341.81,5722.12 4347.37,5722.91"/>
    </edge>
    <edge id=":10761298774_0" function="internal">
        <lane id=":10761298774_0_0" index="0" disallow="tram rail_urban rail rail_electric rail_fast ship" speed="22.22" length="6.66" shape="4335.31,5764.80 4328.69,5764.02"/>
        <lane id=":10761298774_0_1" index="1" disallow="tram rail_urban rail rail_electric rail_fast ship" speed="22.22" length="6.66" shape="4335.68,5761.62 4329.06,5760.84"/>
        <lane id=":10761298774_0_2" index="2" disallow="tram rail_urban rail rail_electric rail_fast ship" speed="22.22" length="6.66" shape="4336.05,5758.44 4329.43,5757.67"/>
    </edge>
    <edge id=":10761298775_0" function="internal">
        <lane id=":10761298775_0_0" index="0" allow="bicycle" speed="5.56" length="5.04" width="1.00" shape="4321.77,5772.37 4320.23,5777.17"/>
    </edge>
    <edge id=":10761298776_0" function="internal">
        <lane id=":10761298776_0_0" index="0" disallow="pedestrian tram rail_urban rail rail_electric rail_fast ship" speed="27.78" length="5.28" shape="4313.23,5769.95 4311.71,5775.01"/>
        <lane id=":10761298776_0_1" index="1" disallow="pedestrian tram rail_urban rail rail_electric rail_fast ship" speed="27.78" length="5.28" shape="4310.17,5769.03 4308.64,5774.08"/>
        <lane id=":10761298776_0_2" index="2" disallow="pedestrian tram rail_urban rail rail_electric rail_fast ship" speed="27.78" length="5.28" shape="4307.10,5768.10 4305.58,5773.16"/>
        <lane id=":10761298776_0_3" index="3" disallow="pedestrian tram rail_urban rail rail_electric rail_fast ship" speed="27.78" length="5.28" shape="4304.04,5767.18 4302.51,5772.24"/>
        <lane id=":10761298776_0_4" index="4" disallow="pedestrian tram rail_urban rail rail_electric rail_fast ship" speed="27.78" length="5.28" shape="4300.97,5766.26 4299.45,5771.32"/>
    </edge>
    <edge id=":10761298777_0" function="internal">
        <lane id=":10761298777_0_0" index="0" disallow="pedestrian tram rail_urban rail rail_electric rail_fast ship" speed="27.78" length="5.11" shape="4284.94,5767.22 4286.38,5762.32"/>
        <lane id=":10761298777_0_1" index="1" disallow="pedestrian tram rail_urban rail rail_electric rail_fast ship" speed="27.78" length="5.11" shape="4288.01,5768.12 4289.45,5763.22"/>
        <lane id=":10761298777_0_2" index="2" disallow="pedestrian tram rail_urban rail rail_electric rail_fast ship" speed="27.78" length="5.11" shape="4291.08,5769.02 4292.52,5764.12"/>
    </edge>
    <edge id=":1226606439_0" function="internal">
        <lane id=":1226606439_0_0" index="0" disallow="tram rail_urban rail rail_electric rail_fast ship" speed="13.89" length="9.43" shape="3961.84,4454.94 3961.79,4464.37"/>
    </edge>
    <edge id=":1226606439_1" function="internal">
        <lane id=":1226606439_1_0" index="0" allow="pedestrian delivery bicycle" speed="6.83" length="3.31" shape="3961.84,4454.94 3961.43,4457.75 3961.19,4458.15"/>
    </edge>
    <edge id=":1226606439_7" function="internal">
        <lane id=":1226606439_7_0" index="0" allow="pedestrian delivery bicycle" speed="6.83" length="7.03" shape="3961.19,4458.15 3960.21,4459.73 3958.19,4460.87 3955.36,4461.17"/>
    </edge>
    <edge id=":1226606439_2" function="internal">
        <lane id=":1226606439_2_0" index="0" allow="pedestrian delivery bicycle" speed="5.00" length="5.04" shape="3955.48,4457.97 3956.86,4457.82 3957.85,4457.27 3958.44,4456.30 3958.64,4454.93"/>
    </edge>
    <edge id=":1226606439_3" function="internal">
        <lane id=":1226606439_3_0" index="0" allow="pedestrian delivery bicycle" speed="6.94" length="10.19" shape="3955.48,4457.97 3958.26,4458.46 3960.24,4459.69 3961.42,4461.66 3961.79,4464.37"/>
    </edge>
    <edge id=":1226606439_4" function="internal">
        <lane id=":1226606439_4_0" index="0" allow="pedestrian delivery bicycle" speed="3.65" length="4.67" shape="3955.48,4457.97 3956.65,4458.81 3957.02,4459.63 3956.59,4460.41 3955.36,4461.17"/>
    </edge>
    <edge id=":1226606439_5" function="internal">
        <lane id=":1226606439_5_0" index="0" allow="pedestrian delivery bicycle" speed="5.15" length="5.14" shape="3958.59,4464.34 3958.40,4463.00 3957.80,4462.02 3956.78,4461.41 3955.36,4461.17"/>
    </edge>
    <edge id=":1226606439_6" function="internal">
        <lane id=":1226606439_6_0" index="0" disallow="tram rail_urban rail rail_electric rail_fast ship" speed="13.89" length="9.41" shape="3958.59,4464.34 3958.64,4454.93"/>
    </edge>
    <edge id=":1226606444_0" function="internal">
        <lane id=":1226606444_0_0" index="0" allow="pedestrian delivery bicycle" speed="5.02" length="5.02" shape="3581.37,4367.66 3579.99,4367.77 3578.99,4368.30 3578.36,4369.24 3578.11,4370.60"/>
    </edge>
    <edge id=":1226606444_1" function="internal">
        <lane id=":1226606444_1_0" index="0" allow="pedestrian delivery bicycle" speed="5.56" length="9.40" shape="3581.37,4367.66 3571.98,4367.08"/>
    </edge>
    <edge id=":1226606444_2" function="internal">
        <lane id=":1226606444_2_0" index="0" allow="pedestrian delivery bicycle" speed="3.65" length="4.67" shape="3581.37,4367.66 3580.22,4366.79 3579.87,4365.97 3580.32,4365.19 3581.56,4364.47"/>
    </edge>
    <edge id=":1226606444_3" function="internal">
        <lane id=":1226606444_3_0" index="0" allow="pedestrian delivery bicycle" speed="5.56" length="9.40" shape="3572.18,4363.89 3581.56,4364.47"/>
    </edge>
    <edge id=":1226606444_4" function="internal">
        <lane id=":1226606444_4_0" index="0" allow="pedestrian delivery bicycle" speed="5.56" length="10.17" shape="3572.18,4363.89 3574.87,4364.45 3576.76,4365.76 3577.84,4367.80 3578.11,4370.60"/>
    </edge>
    <edge id=":1226606444_5" function="internal">
        <lane id=":1226606444_5_0" index="0" allow="pedestrian delivery bicycle" speed="3.65" length="4.67" shape="3572.18,4363.89 3573.33,4364.76 3573.68,4365.58 3573.23,4366.36 3571.98,4367.08"/>
    </edge>
    <edge id=":1226606444_6" function="internal">
        <lane id=":1226606444_6_0" index="0" allow="pedestrian delivery bicycle" speed="5.11" length="5.08" shape="3574.91,4370.46 3574.78,4369.05 3574.25,4368.02 3573.31,4367.36 3571.98,4367.08"/>
    </edge>
    <edge id=":1226606444_7" function="internal">
        <lane id=":1226606444_7_0" index="0" allow="pedestrian delivery bicycle" speed="5.56" length="10.26" shape="3574.91,4370.46 3575.43,4367.69 3576.71,4365.77 3578.75,4364.69 3581.56,4364.47"/>
    </edge>
    <edge id=":1226606444_8" function="internal">
        <lane id=":1226606444_8_0" index="0" allow="pedestrian delivery bicycle" speed="3.65" length="4.67" shape="3574.91,4370.46 3575.76,4369.30 3576.58,4368.93 3577.36,4369.36 3578.11,4370.60"/>
    </edge>
    <edge id=":1226606446_0" function="internal">
        <lane id=":1226606446_0_0" index="0" allow="pedestrian delivery bicycle" speed="5.11" length="5.08" shape="3578.21,4438.96 3576.85,4439.07 3575.84,4439.61 3575.18,4440.57 3574.87,4441.95"/>
    </edge>
    <edge id=":1226606446_1" function="internal">
        <lane id=":1226606446_1_0" index="0" allow="pedestrian delivery bicycle" speed="5.56" length="9.41" shape="3578.21,4438.96 3568.82,4438.34"/>
    </edge>
    <edge id=":1226606446_2" function="internal">
        <lane id=":1226606446_2_0" index="0" allow="pedestrian delivery bicycle" speed="5.56" length="10.18" shape="3578.21,4438.96 3575.52,4438.39 3573.64,4437.07 3572.56,4435.02 3572.29,4432.22"/>
    </edge>
    <edge id=":1226606446_3" function="internal">
        <lane id=":1226606446_3_0" index="0" allow="pedestrian delivery bicycle" speed="3.65" length="4.67" shape="3578.21,4438.96 3577.06,4438.09 3576.72,4437.26 3577.17,4436.49 3578.42,4435.77"/>
    </edge>
    <edge id=":1226606446_4" function="internal">
        <lane id=":1226606446_4_0" index="0" allow="pedestrian delivery bicycle" speed="5.12" length="5.11" shape="3575.49,4432.35 3575.62,4433.77 3576.16,4434.82 3577.09,4435.48 3578.42,4435.77"/>
    </edge>
    <edge id=":1226606446_5" function="internal">
        <lane id=":1226606446_5_0" index="0" allow="pedestrian delivery bicycle" speed="5.56" length="9.61" shape="3575.49,4432.35 3574.87,4441.95"/>
    </edge>
    <edge id=":1226606446_6" function="internal">
        <lane id=":1226606446_6_0" index="0" allow="pedestrian delivery bicycle" speed="5.56" length="10.28" shape="3575.49,4432.35 3574.97,4435.13 3573.69,4437.06 3571.64,4438.13 3568.82,4438.34"/>
    </edge>
    <edge id=":1226606446_7" function="internal">
        <lane id=":1226606446_7_0" index="0" allow="pedestrian delivery bicycle" speed="3.65" length="4.67" shape="3575.49,4432.35 3574.64,4433.52 3573.82,4433.89 3573.04,4433.45 3572.29,4432.22"/>
    </edge>
    <edge id=":1226606446_8" function="internal">
        <lane id=":1226606446_8_0" index="0" allow="pedestrian delivery bicycle" speed="5.01" length="5.03" shape="3569.03,4435.15 3570.41,4435.04 3571.41,4434.52 3572.04,4433.58 3572.29,4432.22"/>
    </edge>
    <edge id=":1226606446_9" function="internal">
        <lane id=":1226606446_9_0" index="0" allow="pedestrian delivery bicycle" speed="5.56" length="9.41" shape="3569.03,4435.15 3578.42,4435.77"/>
    </edge>
    <edge id=":1226606446_10" function="internal">
        <lane id=":1226606446_10_0" index="0" allow="pedestrian delivery bicycle" speed="5.56" length="10.27" shape="3569.03,4435.15 3571.79,4435.73 3573.69,4437.06 3574.71,4439.13 3574.87,4441.95"/>
    </edge>
    <edge id=":1226606446_11" function="internal">
        <lane id=":1226606446_11_0" index="0" allow="pedestrian delivery bicycle" speed="3.65" length="4.67" shape="3569.03,4435.15 3570.17,4436.02 3570.52,4436.85 3570.07,4437.62 3568.82,4438.34"/>
    </edge>
    <edge id=":1226606446_12" function="internal">
        <lane id=":1226606446_12_0" index="0" allow="pedestrian delivery bicycle" speed="5.02" length="5.03" shape="3571.68,4441.67 3571.61,4440.29 3571.10,4439.28 3570.17,4438.63 3568.82,4438.34"/>
    </edge>
    <edge id=":1226606446_13" function="internal">
        <lane id=":1226606446_13_0" index="0" allow="pedestrian delivery bicycle" speed="5.56" length="9.47" shape="3571.68,4441.67 3572.29,4432.22"/>
    </edge>
    <edge id=":1226606446_14" function="internal">
        <lane id=":1226606446_14_0" index="0" allow="pedestrian delivery bicycle" speed="5.56" length="10.17" shape="3571.68,4441.67 3572.31,4438.93 3573.64,4437.04 3575.68,4435.99 3578.42,4435.77"/>
    </edge>
    <edge id=":1226606446_15" function="internal">
        <lane id=":1226606446_15_0" index="0" allow="pedestrian delivery bicycle" speed="3.65" length="4.67" shape="3571.68,4441.67 3572.58,4440.54 3573.41,4440.22 3574.18,4440.68 3574.87,4441.95"/>
    </edge>
    <edge id=":1226606448_0" function="internal">
        <lane id=":1226606448_0_0" index="0" allow="pedestrian delivery bicycle" speed="5.56" length="9.24" shape="3429.61,4584.94 3420.37,4584.93"/>
    </edge>
    <edge id=":1226606448_1" function="internal">
        <lane id=":1226606448_1_0" index="0" allow="pedestrian delivery bicycle" speed="5.56" length="10.48" shape="3429.61,4584.94 3426.75,4584.48 3424.78,4583.20 3423.71,4581.12 3423.54,4578.23"/>
    </edge>
    <edge id=":1226606448_2" function="internal">
        <lane id=":1226606448_2_0" index="0" allow="pedestrian delivery bicycle" speed="3.65" length="4.67" shape="3429.61,4584.94 3428.42,4584.12 3428.04,4583.31 3428.45,4582.52 3429.67,4581.74"/>
    </edge>
    <edge id=":1226606448_3" function="internal">
        <lane id=":1226606448_3_0" index="0" allow="pedestrian delivery bicycle" speed="4.97" length="5.08" shape="3426.73,4578.49 3426.81,4579.89 3427.33,4580.90 3428.28,4581.52 3429.67,4581.74"/>
    </edge>
    <edge id=":1226606448_4" function="internal">
        <lane id=":1226606448_4_0" index="0" allow="pedestrian delivery bicycle" speed="5.56" length="10.10" shape="3426.73,4578.49 3426.13,4581.27 3424.88,4583.27 3422.96,4584.49 3420.37,4584.93"/>
    </edge>
    <edge id=":1226606448_5" function="internal">
        <lane id=":1226606448_5_0" index="0" allow="pedestrian delivery bicycle" speed="3.65" length="4.67" shape="3426.73,4578.49 3425.83,4579.62 3425.00,4579.95 3424.24,4579.49 3423.54,4578.23"/>
    </edge>
    <edge id=":1226606448_6" function="internal">
        <lane id=":1226606448_6_0" index="0" allow="pedestrian delivery bicycle" speed="5.35" length="5.31" shape="3420.31,4581.73 3421.61,4581.49 3422.59,4580.83 3423.23,4579.74 3423.54,4578.23"/>
    </edge>
    <edge id=":1226606448_7" function="internal">
        <lane id=":1226606448_7_0" index="0" allow="pedestrian delivery bicycle" speed="5.56" length="9.36" shape="3420.31,4581.73 3429.67,4581.74"/>
    </edge>
    <edge id=":1226606448_8" function="internal">
        <lane id=":1226606448_8_0" index="0" allow="pedestrian delivery bicycle" speed="3.65" length="4.67" shape="3420.31,4581.73 3421.52,4582.51 3421.94,4583.30 3421.55,4584.11 3420.37,4584.93"/>
    </edge>
    <edge id=":1226606451_0" function="internal">
        <lane id=":1226606451_0_0" index="0" allow="pedestrian delivery bicycle" speed="5.01" length="5.04" shape="3446.38,4359.27 3444.99,4359.39 3443.99,4359.92 3443.37,4360.86 3443.14,4362.23"/>
    </edge>
    <edge id=":1226606451_1" function="internal">
        <lane id=":1226606451_1_0" index="0" allow="pedestrian delivery bicycle" speed="5.56" length="9.38" shape="3446.38,4359.27 3437.02,4358.63"/>
    </edge>
    <edge id=":1226606451_2" function="internal">
        <lane id=":1226606451_2_0" index="0" allow="pedestrian delivery bicycle" speed="3.65" length="4.67" shape="3446.38,4359.27 3445.23,4358.40 3444.88,4357.58 3445.33,4356.81 3446.57,4356.08"/>
    </edge>
    <edge id=":1226606451_3" function="internal">
        <lane id=":1226606451_3_0" index="0" allow="pedestrian delivery bicycle" speed="5.56" length="9.34" shape="3437.26,4355.44 3446.57,4356.08"/>
    </edge>
    <edge id=":1226606451_4" function="internal">
        <lane id=":1226606451_4_0" index="0" allow="pedestrian delivery bicycle" speed="5.56" length="10.14" shape="3437.26,4355.44 3439.90,4356.04 3441.76,4357.37 3442.84,4359.43 3443.14,4362.23"/>
    </edge>
    <edge id=":1226606451_5" function="internal">
        <lane id=":1226606451_5_0" index="0" allow="pedestrian delivery bicycle" speed="3.65" length="4.67" shape="3437.26,4355.44 3438.40,4356.33 3438.73,4357.15 3438.27,4357.92 3437.02,4358.63"/>
    </edge>
    <edge id=":1226606451_6" function="internal">
        <lane id=":1226606451_6_0" index="0" allow="pedestrian delivery bicycle" speed="5.18" length="5.15" shape="3439.94,4362.13 3439.79,4360.69 3439.26,4359.62 3438.33,4358.93 3437.02,4358.63"/>
    </edge>
    <edge id=":1226606451_7" function="internal">
        <lane id=":1226606451_7_0" index="0" allow="pedestrian delivery bicycle" speed="5.56" length="10.32" shape="3439.94,4362.13 3440.42,4359.34 3441.69,4357.39 3443.74,4356.31 3446.57,4356.08"/>
    </edge>
    <edge id=":1226606451_8" function="internal">
        <lane id=":1226606451_8_0" index="0" allow="pedestrian delivery bicycle" speed="3.65" length="4.67" shape="3439.94,4362.13 3440.77,4360.96 3441.58,4360.58 3442.37,4361.01 3443.14,4362.23"/>
    </edge>
    <edge id=":1226606461_0" function="internal">
        <lane id=":1226606461_0_0" index="0" allow="pedestrian delivery bicycle" speed="5.13" length="4.98" shape="3444.03,4430.05 3442.66,4430.15 3441.64,4430.65 3440.94,4431.54 3440.59,4432.84"/>
    </edge>
    <edge id=":1226606461_1" function="internal">
        <lane id=":1226606461_1_0" index="0" allow="pedestrian delivery bicycle" speed="5.56" length="9.98" shape="3444.03,4430.05 3441.36,4429.49 3439.49,4428.21 3438.40,4426.22 3438.10,4423.52"/>
    </edge>
    <edge id=":1226606461_2" function="internal">
        <lane id=":1226606461_2_0" index="0" allow="pedestrian delivery bicycle" speed="3.65" length="4.67" shape="3444.03,4430.05 3442.88,4429.17 3442.54,4428.35 3442.99,4427.58 3444.24,4426.86"/>
    </edge>
    <edge id=":1226606461_3" function="internal">
        <lane id=":1226606461_3_0" index="0" allow="pedestrian delivery bicycle" speed="5.08" length="4.96" shape="3441.30,4423.62 3441.45,4424.96 3441.99,4425.95 3442.92,4426.58 3444.24,4426.86"/>
    </edge>
    <edge id=":1226606461_4" function="internal">
        <lane id=":1226606461_4_0" index="0" allow="pedestrian delivery bicycle" speed="5.56" length="9.25" shape="3441.30,4423.62 3441.21,4426.36 3441.11,4428.24 3440.92,4430.11 3440.59,4432.84"/>
    </edge>
    <edge id=":1226606461_5" function="internal">
        <lane id=":1226606461_5_0" index="0" allow="pedestrian delivery bicycle" speed="3.65" length="4.67" shape="3441.30,4423.62 3440.46,4424.79 3439.65,4425.17 3438.86,4424.74 3438.10,4423.52"/>
    </edge>
    <edge id=":1226606461_6" function="internal">
        <lane id=":1226606461_6_0" index="0" allow="pedestrian delivery bicycle" speed="5.56" length="8.95" shape="3437.41,4432.44 3437.74,4429.80 3437.91,4427.99 3438.01,4426.18 3438.10,4423.52"/>
    </edge>
    <edge id=":1226606461_7" function="internal">
        <lane id=":1226606461_7_0" index="0" allow="pedestrian delivery bicycle" speed="5.56" length="9.93" shape="3437.41,4432.44 3438.12,4429.85 3439.49,4428.05 3441.53,4427.06 3444.24,4426.86"/>
    </edge>
    <edge id=":1226606461_8" function="internal">
        <lane id=":1226606461_8_0" index="0" allow="pedestrian delivery bicycle" speed="3.65" length="4.67" shape="3437.41,4432.44 3438.36,4431.35 3439.20,4431.05 3439.94,4431.55 3440.59,4432.84"/>
    </edge>
    <edge id=":1226606467_0" function="internal">
        <lane id=":1226606467_0_0" index="0" allow="pedestrian delivery bicycle" speed="5.56" length="7.43" shape="3774.11,4452.05 3766.70,4451.53"/>
    </edge>
    <edge id=":1226606467_1" function="internal">
        <lane id=":1226606467_1_0" index="0" allow="pedestrian delivery bicycle" speed="5.56" length="10.17" shape="3774.11,4452.05 3771.42,4451.46 3769.54,4450.14 3768.48,4448.09 3768.23,4445.30"/>
    </edge>
    <edge id=":1226606467_2" function="internal">
        <lane id=":1226606467_2_0" index="0" allow="pedestrian delivery bicycle" speed="3.65" length="4.67" shape="3774.11,4452.05 3772.97,4451.17 3772.63,4450.34 3773.08,4449.57 3774.33,4448.85"/>
    </edge>
    <edge id=":1226606467_3" function="internal">
        <lane id=":1226606467_3_0" index="0" allow="pedestrian delivery bicycle" speed="5.10" length="5.07" shape="3771.43,4445.46 3771.55,4446.87 3772.07,4447.90 3773.00,4448.56 3774.33,4448.85"/>
    </edge>
    <edge id=":1226606467_4" function="internal">
        <lane id=":1226606467_4_0" index="0" allow="pedestrian delivery bicycle" speed="5.56" length="8.73" shape="3771.43,4445.46 3771.01,4448.23 3770.09,4450.17 3768.65,4451.27 3766.70,4451.53"/>
    </edge>
    <edge id=":1226606467_5" function="internal">
        <lane id=":1226606467_5_0" index="0" allow="pedestrian delivery bicycle" speed="3.65" length="4.67" shape="3771.43,4445.46 3770.57,4446.62 3769.75,4446.98 3768.97,4446.54 3768.23,4445.30"/>
    </edge>
    <edge id=":1226606467_6" function="internal">
        <lane id=":1226606467_6_0" index="0" allow="pedestrian delivery bicycle" speed="4.39" length="3.59" shape="3766.92,4448.34 3767.44,4448.18 3767.83,4447.62 3768.09,4446.66 3768.23,4445.30"/>
    </edge>
    <edge id=":1226606467_7" function="internal">
        <lane id=":1226606467_7_0" index="0" allow="pedestrian delivery bicycle" speed="5.56" length="7.43" shape="3766.92,4448.34 3774.33,4448.85"/>
    </edge>
    <edge id=":1226606467_8" function="internal">
        <lane id=":1226606467_8_0" index="0" allow="pedestrian delivery bicycle" speed="3.65" length="4.67" shape="3766.92,4448.34 3768.06,4449.22 3768.41,4450.05 3767.95,4450.82 3766.70,4451.53"/>
    </edge>
    <edge id=":1226606482_0" function="internal">
        <lane id=":1226606482_0_0" index="0" allow="pedestrian delivery bicycle" speed="5.56" length="9.40" shape="3565.60,4587.54 3556.20,4587.34"/>
    </edge>
    <edge id=":1226606482_1" function="internal">
        <lane id=":1226606482_1_0" index="0" allow="pedestrian delivery bicycle" speed="5.56" length="10.48" shape="3565.60,4587.54 3562.74,4587.06 3560.78,4585.78 3559.71,4583.69 3559.55,4580.80"/>
    </edge>
    <edge id=":1226606482_2" function="internal">
        <lane id=":1226606482_2_0" index="0" allow="pedestrian delivery bicycle" speed="3.65" length="4.67" shape="3565.60,4587.54 3564.42,4586.71 3564.03,4585.90 3564.45,4585.11 3565.67,4584.34"/>
    </edge>
    <edge id=":1226606482_3" function="internal">
        <lane id=":1226606482_3_0" index="0" allow="pedestrian delivery bicycle" speed="4.97" length="5.08" shape="3562.74,4581.07 3562.82,4582.48 3563.33,4583.49 3564.28,4584.11 3565.67,4584.34"/>
    </edge>
    <edge id=":1226606482_4" function="internal">
        <lane id=":1226606482_4_0" index="0" allow="pedestrian delivery bicycle" speed="5.56" length="10.18" shape="3562.74,4581.07 3562.12,4583.86 3560.83,4585.83 3558.85,4587.00 3556.20,4587.34"/>
    </edge>
    <edge id=":1226606482_5" function="internal">
        <lane id=":1226606482_5_0" index="0" allow="pedestrian delivery bicycle" speed="3.65" length="4.67" shape="3562.74,4581.07 3561.84,4582.20 3561.01,4582.53 3560.25,4582.06 3559.55,4580.80"/>
    </edge>
    <edge id=":1226606482_6" function="internal">