<?xml version="1.0" encoding="UTF-8"?>

<!-- generated on 2023-03-26 00:38:29 by Eclipse SUMO duarouter Version 1.14.1
<configuration xmlns:xsi="http://www.w3.org/2001/XMLSchema-instance" xsi:noNamespaceSchemaLocation="http://sumo.dlr.de/xsd/duarouterConfiguration.xsd">

    <input>
        <net-file value="map1.net.xml"/>
        <route-files value="map1.trips.xml"/>
    </input>

    <output>
        <output-file value="map.rou.xml"/>
    </output>

    <report>
        <ignore-errors value="true"/>
    </report>

</configuration>
-->

<routes xmlns:xsi="http://www.w3.org/2001/XMLSchema-instance" xsi:noNamespaceSchemaLocation="http://sumo.dlr.de/xsd/routes_file.xsd">
    <vehicle id="0" depart="0.00">
        <route edges="539260002 8949448#1 8949448#2 8949448#3 8949448#4 690084781 -690084773 417322354#1 417322345#0 8948868 417322364 1067494099 396881137#1 596052103#1 596052103#2 596052103#3 561916589 396881735#0 -684456925#9 -684456925#8 -684456925#7 -23693619#5 -23693619#4 -23693619#3 -23693619#2 -23693619#1"/>
    </vehicle>
    <vehicle id="1" depart="1.00">
        <route edges="-82161584#0 -165278803#2 -165278803#1 -413736750#3 -413736750#2 -413736750#1 -413736750#0 -596052106#2 -596052106#1 -596052106#0 -468540797#4 -468540797#3 -468540797#2 -468540797#1 24763456#1 24763456#2 24763456#3 24763456#4 24763456#5 24763456#6 194894679#0 194894679#1 8958410#1 609348639#1 609348639#2 609390405#0 609390405#1 25292876#0 25292876#1 25292876#2 25292876#3 780589906 696196339 676154806#0 676154806#1 608784173#0 608784173#1 609390406#0 609390406#1 -676154806#1"/>
    </vehicle>
    <vehicle id="2" depart="2.00">
        <route edges="609346211#6 609346211#7 609346211#8 396669642#0 396669642#1 690330834 497577135#0 497577135#1 596052094 596052093#0 783946391#0 783946391#1 396881134#0 396881134#1 396881134#2 619117700#1 619117700#3 396881150#0 71183126#1 698084662 698084661 596052097#0 596052097#1"/>
    </vehicle>
    <vehicle id="3" depart="3.00">
        <route edges="690013669#1 670828502#2 -38921729 430280129#0 430280129#1 609459486 596085800 430280110 690014641#0 690014641#1 -621843309 -690084782 -690084776 538038640#0 690084781 -690084773 417322354#1 417322345#0 8948868 417322364 1067494099 396881137#1 596052103#1 596052103#2 596052103#3 561916589 396881735#0 -684456925#9 -684456925#8 -684456925#7 -684456925#4 -684456925#1 -684456925#0 -396887095#2 -396887095#0 -8949170#1 -396887096#0 -396887094"/>
    </vehicle>
    <vehicle id="4" depart="4.00">
        <route edges="30775885#4 30775885#5 30775885#6 30775885#7 30775885#8 30775885#9 481335235#5 481335235#6 481335235#7 481335235#0 481335235#1 481335235#2 481335235#3 481335235#4 -30775885#9 -30775885#8 -30775885#7 -30775885#6 -30775885#5 -30775885#4 -30775885#3 -30775885#2 -30775885#1 -696196339 -780589906 -25292876#3 -25292876#2 -25292876#1 -25292876#0 25292875#0 25292875#1 -609348639#2 -609348639#1 -8958410#1 596052104 596052103#1 596052103#2 596052103#3 561916589 396881735#0 -684456925#9 -684456925#8 -684456925#7 -23693619#5"/>
    </vehicle>
    <vehicle id="5" depart="5.00">
        <route edges="-676064527 -8965915 430280113#0 430280113#1 430280110 690014641#0 690014641#1 -621843309 -690084782 -690084776 538038640#0 690084781 -690084773 417322354#1 417322345#0 -417322395 8948864#1 417322338"/>
    </vehicle>
    <vehicle id="8" depart="8.00">
        <route edges="-676068183 -166802681#0 166802681#0 166802681#1 676068184 82161584#1 98411292#0 -413736750#2 -413736750#1 -413736750#0 -596052106#2 -596052106#1 -596052106#0 -468540797#4 -468540797#3 -468540797#2 -468540797#1 24763456#1 24763456#2 24763456#3 24763456#4 24763456#5 24763456#6 194894679#0 194894679#1 8958410#1 609348639#1 609348639#2 609390405#0 609390405#1 25292876#0 25292876#1 25292876#2 25292876#3 780589906 696196339 676154806#0 676154806#1 608784173#0 608784173#1 23693550#0 23693550#1 609346211#1 609346211#2 609346211#3 609346211#4 609346211#5 609346211#6 609346211#7 609346211#8 497577140#0 497577140#1"/>
    </vehicle>
    <vehicle id="9" depart="9.00">
        <route edges="670828502#0 670828502#2 -38921729 430280129#0 430280129#1 609459486 596085800 430280110 690014641#0 690014641#1 -621843309 -690084782 -690084776 538038640#0 690084781 -690084773 417322354#1 417322345#0 8948868 417322364 1067494099 396881137#1 596052103#1 596052103#2 596052103#3 561916589 396881735#0 -684456925#9 -684456925#8 -684456925#7 -684456925#4 -684456925#1 -684456925#0 539102013#1 539102013#2 25292839#3 25292839#4 539105647 221576437#0 221576437#1 221576437#2 781435011#1 164126511#1 164126511#2 -673654073 963278534 396883568 52016261#1 788665056 332606225 385386001 673654078 52016498#0 673654079#0 673654074 673654073 -164126511#2"/>
    </vehicle>
    <vehicle id="10" depart="10.00">
        <route edges="670828500#0 670828502#2 -38921729 430280129#0 430280129#1 609459486 430280114#0 430280114#1 8965915 676064532 413736744#0 413736744#1 596052106#0 596052106#1 596052106#2"/>
    </vehicle>
    <vehicle id="11" depart="11.00">
        <route edges="1059633427#1 1059633427#2 677704300#0 677704300#1 677704300#2 677704300#3 677704300#4 396881168#1 8970238 538082433#0 538082433#1 538082433#2 538082433#3 538082433#4 538082433#5 538082433#7 538082433#8 417322394#0 165816831#0 682476777#0 677108581#0 677108581#1 677108581#2 677108581#3 274910914#1 274910915#0 274910915#1 274910915#2 417322396 417322395 8948868 417322364 1067494099 396881137#1 -596052104"/>
    </vehicle>
    <vehicle id="12" depart="12.00">
        <route edges="8949448#0 8949448#1 8949448#2 8949448#3 8949448#4 690084781 -690084773 417322354#1 417322345#0 -417322395 -417322396 -274910915#2 -274910915#1 -274910915#0 -274910914#1 -608820466#0 -677149784#1 -677149784#0 -539260299#1 -539260299#0 -674561341 -674737111#3 -674737111#2 -674737111#1 1038160833#0 1038160833#1"/>
    </vehicle>
    <vehicle id="13" depart="13.00">
        <route edges="-413736750#3"/>
    </vehicle>
    <vehicle id="14" depart="14.00">
        <route edges="676154806#0 676154806#1 608784173#0 608784173#1 609390406#0 609390406#1 -676154806#1 -676154806#0 -696196339 -780589906 -25292876#3 -25292876#2 -25292876#1 -25292876#0 25292875#0 25292875#1 -609348639#2 -609348639#1 -8958410#1 596052104 689764372#0 689764372#1 933360118 596052105#1 596052105#2 609381103 -417322396 -274910915#2 -274910915#1 -274910915#0 -274910914#1 -677108581#3 -677108581#2 -677108581#1 -677108581#0 -596067033 -165816831#2 1059633427#0 1059633427#1 1059633427#2 677704300#0 677704300#1 677704300#2 677704300#3 677704300#4 396881168#1 8970238 538082433#0 538082433#1"/>
    </vehicle>
    <vehicle id="15" depart="15.00">
        <route edges="670828500#2 670828501#0 670828501#1 538038646#1 538038646#2 -538038646#2 -538038646#1 -538038646#0 -670828501#0 670828502#0 670828502#2 -38921729 430280129#0 430280129#1 609459486 430280114#0 430280114#1 8965915 676064532 413736744#0 413736744#1 -468540797#4 -468540797#3 -468540797#2 -468540797#1 24763456#1 24763456#2 24763456#3 24763456#4 24763456#5 24763456#6 194894679#0 194894679#1 8958410#1 609348639#1 609348639#2 609390405#0 609390405#1 25292876#0 25292876#1 25292876#2 25292876#3 780589906 696196339 676154806#0 676154806#1 608784173#0 608784173#1"/>
    </vehicle>
    <vehicle id="16" depart="16.00">
        <route edges="460597953#5 460597952 481335249#2 481335249#3 30775863#0 30775863#1 30775863#2 30775863#3 481335234 481335232#5 481335232#6 481335230 -481335240 481335241 481335235#2 481335235#3 481335235#4 -30775885#9 -30775885#8 -30775885#7 -30775885#6 -30775885#5 -30775885#4 -30775885#3 -30775885#2 -30775885#1 26249908 696199096#0 696199096#1 696199096#2 694397330#1 25292839#0 25292839#1 25292839#2 25292839#3 -8961035#7 -8961035#6 -8961035#5 8961035#5 8961035#6"/>
    </vehicle>
    <vehicle id="17" depart="17.00">
        <route edges="24763456#3 24763456#4 24763456#5 24763456#6 194894679#0 194894679#1 8958410#1 609348639#1 609348639#2 609390405#0 609390405#1 25292876#0 25292876#1 25292876#2 25292876#3 780589906 696196339 30775885#1 30775885#2 30775885#3 30775885#4 30775885#5 30775885#6 30775885#7 30775885#8 30775885#9 481335235#5 481335235#6 481335235#7 481335235#0 481335236 481335240 481335231 481335232#1 481335232#2 481335232#3 481335232#4 481335232#5"/>
    </vehicle>
    <vehicle id="19" depart="19.00">
        <route edges="677704300#4 396881168#1 8970238 538082433#0 538082433#1 538082433#2 538082433#3 538082433#4 538082433#5 538082433#7 538082433#8 417322394#0 165816831#0 682476777#0 677108581#0 677108581#1 677108581#2 677108581#3 274910914#1 274910915#0 274910915#1 274910915#2 417322396 417322395 8948868 417322364 1067494099 396881137#1 -596052104 8958410#1 609348639#1 609348639#2 609390405#0 609390405#1 25292876#0 25292876#1 25292876#2 25292876#3 780589906 696196339 676154806#0 676154806#1 608784173#0 608784173#1 23693550#0 23693550#1 609346211#1 609346211#2 609346211#3 609346211#4 609346211#5 609346211#6 609346211#7 609346211#8 497577140#0 497577140#1 497577122#2 497577122#3"/>
    </vehicle>
    <vehicle id="20" depart="20.00">
        <route edges="596067032#0 596067032#3 596067032#4 267930455 677704301#0 677704301#1 677704301#2 1049522647#0 165816831#0 682476777#0 677108581#0 677108581#1 677108581#2 677108581#3 274910914#1 274910915#0 274910915#1 274910915#2 417322396 417322395 8948868 417322364 1067494099 396881137#1 -596052104 8958410#1 609348639#1 609348639#2 609390405#0 609390405#1 25292876#0 25292876#1 25292876#2 25292876#3 780589906 696196339 -696196339 -780589906 -25292876#3"/>
    </vehicle>
    <vehicle id="21" depart="21.00">
        <route edges="-677108581#3 -677108581#2 -677108581#1 -677108581#0 -596067033 -165816831#2 165816831#0 682476777#0 677108581#0 677108581#1 677108581#2 677108581#3 274910914#1 274910915#0 274910915#1 274910915#2 417322396 8948864#1 417322338 376777188#0 417322334 690084779 -8949448#4 -8949448#3 -8949448#2"/>
    </vehicle>
    <vehicle id="22" depart="22.00">
        <route edges="-396887091#0 -396887090#1 -396887090#0 -797221047 -396887092 396887089 396887093#1 396887093#2 1034177165 1034177164 518555623#1 596052093#0 596052093#1 690330833 596052095 690330834 497577122#0 497577122#1 497577122#2 497577122#3 497577122#4 497577122#5 497577122#6 497577122#7 497577122#8 1022449383#0 1022449383#1 630112787#0 630112787#1 630112789#1 884069263#0 884069263#1 619325130#1 8948613#1 596052113#0 580369170#0 580369170#1 -678214209#3 -678214209#1 -678214209#0 -678214207 -678214208"/>
    </vehicle>
    <vehicle id="25" depart="25.00">
        <route edges="23693619#1 23693619#2 23693619#3 23693619#4 23693619#5 684456925#7 684456925#8 684456925#9 596052101#1 596052101#2 596052101#3 596052101#4 689764372#0 689764372#1 933360118 596052105#1 596052105#2 609381103 -417322396 -274910915#2 -274910915#1 -274910915#0 -274910914#1 -608820466#0 -677149784#1 -677149784#0 -539260299#1 -539260299#0 -674561341 -674737111#3 -674737111#2"/>
    </vehicle>
    <vehicle id="26" depart="26.00">
        <route edges="-696199096#0 -26249908 676154806#0 676154806#1 608784173#0 608784173#1 23693550#0 23693550#1 31705613#1 31705613#2 31705613#3 31705613#4 678227662#0 678227662#1 678227662#2 678227662#3 678227662#4 1017389194#0 1017389194#1 630112789#1 884069263#0"/>
    </vehicle>
    <vehicle id="27" depart="27.00">
        <route edges="54755940#2 54755940#3 396887092 797221047 396887090#0 396887090#1 396887091#0 396887091#1 54756076#0 54756076#1 696552526 -696552526 -54756076#1 -54756076#0 -396887091#1 -396887091#0 -396887090#1 -396887090#0 -797221047 -396887092 396887089 396887093#1 396887093#2 1034177165 1034177164 518555623#1 596052093#0 596052093#1 690330833 497577130#0 497577130#1 -609346211#8 -609346211#7 -609346211#6 -609346211#5 -609346211#4 -609346211#3 -609346211#2 -609346211#1 -23693550#1 -23693550#0 609390406#0 609390406#1 -676154806#1 -676154806#0 -696196339 -780589906 -25292876#3 -25292876#2 -25292876#1 -25292876#0 25292875#0 25292875#1 -609348639#2 -609348639#1 -8958410#1 596052104 689764372#0 689764372#1 933360118 596052105#1 596052105#2 609381103 -417322396 -274910915#2 -274910915#1 -274910915#0 -274910914#1 -677108581#3 -677108581#2 -677108581#1 -677108581#0 -596067033 -165816831#2 1059633427#0 1059633427#1 1059633427#2 677704300#0 677704300#1 677704300#2 677704300#3 677704300#4 396881168#1 8970238 538082433#0 538082433#1 538082433#2 538082433#3 538082433#4 538082433#5 538082433#7"/>
    </vehicle>
    <vehicle id="28" depart="28.00">
        <route edges="-609346211#6 -609346211#5 -609346211#4 -609346211#3 -609346211#2 -609346211#1 -23693550#1 -23693550#0 609390406#0 609390406#1 608784173#0 608784173#1"/>
    </vehicle>
    <vehicle id="29" depart="29.00">
        <route edges="-596067034#2 596067034#0 689239827 8947203#0 8947203#1 682476777#0 677108581#0 677108581#1 677108581#2 677108581#3 274910914#1 274910915#0 274910915#1 274910915#2 417322396 417322395 8948868 417322364 1067494099 396881137#1 -596052104 8958410#1 609348639#1 609348639#2 609390405#0 609390405#1 25292876#0 25292876#1 25292876#2 25292876#3 780589906 696196339 26249908 696199096#0 696199096#1 696199096#2 694397330#1 25292839#0"/>
    </vehicle>
    <vehicle id="31" depart="31.00">
        <route edges="481335234 481335232#5 481335232#6 481335230 -481335240 481335241 481335235#2 481335235#3 481335235#4 -30775885#9 -30775885#8 -30775885#7 -30775885#6 -30775885#5 -30775885#4 -30775885#3 -30775885#2 -30775885#1 -696196339 -780589906 -25292876#3 -25292876#2 -25292876#1 -25292876#0 25292875#0 25292875#1 -609348639#2 -609348639#1 -8958410#1 596052104 596052103#1 596052103#2 596052103#3 561916589 396881735#0 596052101#1"/>
    </vehicle>
    <vehicle id="32" depart="32.00">
        <route edges="675542323#3 675542323#5 675542323#6 -675542323#6 -675542323#5 -675542323#3 -675542323#1 -675542323#0 -675053385#0 -675542322#0 -675053454#2 596067034#0 689239827 8947203#0 8947203#1 682476777#0 677108581#0 677108581#1 677108581#2 677108581#3 274910914#1 274910915#0 274910915#1 274910915#2 417322396 417322395 8948868 417322364 1067494099 396881137#1 -596052104 8958410#1 609348639#1 609348639#2 609390405#0 609390405#1 25292876#0 25292876#1 25292876#2 25292876#3 780589906 696196339 676154806#0 676154806#1 608784173#0 608784173#1 23693550#0 23693550#1 31705613#1 31705613#2 31705613#3 31705613#4 678227662#0 678227662#1 678227662#2 678227662#3 678227662#4 1017389194#0 1017389194#1 630112789#1 630112785 630112788#0 630112788#1 619322360 630112784#0 630112784#1"/>
    </vehicle>
    <vehicle id="33" depart="33.00">
        <route edges="-677149784#0 -539260299#1 -539260299#0 -674561341 -674737111#3 -674737111#2 -674737111#1 674737111#1 674737111#2 674737111#3 674561341 539260299#0 539260299#1 677149784#0 677149784#1 608820466#0 274910914#1 274910915#0 274910915#1 274910915#2 417322396 417322395 8948868 417322364 1067494099 396881137#1 -596052104 -194894679#1 -194894679#0 -24763456#6 -24763456#5 -24763456#4 -24763456#3 -24763456#2"/>
    </vehicle>
    <vehicle id="36" depart="36.00">
        <route edges="681410061#0 684456925#4 684456925#7 684456925#8 684456925#9 596052101#1 596052101#2 596052101#3 596052101#4 689764372#0 689764372#1 933360118 596052105#1 596052105#2 609381103 8948864#1 417322338 376777188#0 609381100 8966091#0 8966091#1 596067030#0 596067030#1 596067030#2 -417322373 -596067030#1 -596067030#0 -8966091#1"/>
    </vehicle>
    <vehicle id="38" depart="38.00">
        <route edges="698084661 596052097#0 596052097#1 596052097#2 596052097#3 -707483799 715649715 -596052097#3 -596052097#2 -596052097#1 -596052097#0 -698084661 596052098#0 396881157#1"/>
    </vehicle>
    <vehicle id="39" depart="39.00">
        <route edges="-694397330#1 -694397330#0 -696199096#1 -696199096#0 -26249908 -696196339 -780589906 -25292876#3 -25292876#2 -25292876#1 -25292876#0 25292875#0 25292875#1 -609348639#2 -609348639#1 -8958410#1 596052104 596052103#1 596052103#2 596052103#3 561916589 396881735#0 -684456925#9 -684456925#8 -684456925#7 -684456925#4 -684456925#1 -684456925#0"/>
    </vehicle>
    <vehicle id="41" depart="41.00">
        <route edges="497577130#1 -609346211#8 -609346211#7 -609346211#6 -609346211#5 -609346211#4 -609346211#3 -609346211#2 -609346211#1 -23693550#1 -23693550#0 609390406#0 609390406#1 -676154806#1 -676154806#0 -696196339 -780589906 -25292876#3 -25292876#2 -25292876#1 -25292876#0 25292875#0 25292875#1 -609348639#2 -609348639#1 -8958410#1 596052104 689764372#0 689764372#1 933360118 596052105#1 596052105#2 609381103 8948864#1 417322338 376777188#0 417322334 690084779"/>
    </vehicle>
    <vehicle id="42" depart="42.00">
        <route edges="26593779#2 596067035#3 417319938#0 596067034#0 689239827 8947203#0 8947203#1 682476777#0 677108581#0 677108581#1 677108581#2 677108581#3 274910914#1 274910915#0 274910915#1 274910915#2 417322396 417322395 8948868 539103703#0 539103703#1 539103703#2 539103704#1 539103704#2 539103704#3 539103704#4 539103704#5 539103704#6 539103704#7 468540797#1 468540797#2 468540797#3 468540797#4 -413736744#1 -413736744#0 -676064527"/>
    </vehicle>
    <vehicle id="44" depart="44.00">
        <route edges="-413736750#1 -413736750#0 -596052106#2 -596052106#1 -596052106#0 -468540797#4 -468540797#3 -468540797#2 -468540797#1 24763456#1 24763456#2 24763456#3 24763456#4 24763456#5 24763456#6 194894679#0 194894679#1 596052104 596052103#1 596052103#2 596052103#3 561916589 396881735#0 -684456925#9 -684456925#8 -684456925#7 -684456925#4 -684456925#1 -684456925#0 539102013#1 539102013#2 -25292839#2 -25292839#1 -25292839#0 -694397330#1 -694397330#0 -696199096#1 -696199096#0 -26249908"/>
    </vehicle>
    <vehicle id="46" depart="46.00">
        <route edges="650725345#0 413736744#0 413736744#1 -468540797#4 -468540797#3 -468540797#2 -468540797#1 24763456#1 24763456#2 24763456#3 24763456#4 24763456#5 24763456#6 194894679#0 194894679#1 8958410#1 609348639#1 609348639#2 609390405#0 609390405#1 25292876#0 25292876#1 25292876#2 25292876#3 780589906 696196339 30775885#1 30775885#2 30775885#3 30775885#4 30775885#5 30775885#6"/>
    </vehicle>
    <vehicle id="47" depart="47.00">
        <route edges="-30775885#3 -30775885#2 -30775885#1 26249908 696199096#0 696199096#1 696199096#2 694397330#1 25292839#0 25292839#1 25292839#2"/>
    </vehicle>
    <vehicle id="48" depart="48.00">
        <route edges="933360118 596052105#1 596052105#2 8955704 417322364 1067494099 396881137#1 -596052104 8958410#1 609348639#1 609348639#2 609390405#0 609390405#1 25292876#0 25292876#1 25292876#2 25292876#3 780589906 696196339 30775885#1 30775885#2 30775885#3 30775885#4 30775885#5 30775885#6 30775885#7 30775885#8 30775885#9 481335235#5 481335235#6 481335235#7 481335235#0 481335236 481335240 481335231 481335232#1 481335232#2 481335232#3 481335233 -30775863#3 -30775863#2 -30775863#1 -30775863#0 481335249#1 -48162361 460597953#1 460597953#2 460597953#3 460597953#4 460597953#5 460597952"/>
    </vehicle>
    <vehicle id="49" depart="49.00">
        <route edges="8961035#1 8961035#2 396887095#2 684456925#0 684456925#1 684456925#4 684456925#7 684456925#8 684456925#9 596052101#1 596052101#2 596052101#3 596052101#4 689764372#0 689764372#1 933360118 596052105#1 596052105#2 609381103 -417322396 -274910915#2 -274910915#1 -274910915#0 -274910914#1 -677108581#3 -677108581#2 -677108581#1 -677108581#0 -596067033 596067032#0 596067032#3 596067032#4 267930455 677704301#0"/>
    </vehicle>
    <vehicle id="50" depart="50.00">
        <route edges="-165816831#2 165816831#0 682476777#0 677108581#0 677108581#1 677108581#2 677108581#3 274910914#1 274910915#0 274910915#1 274910915#2 417322396 8948864#1 417322338 376777188#0 417322334 690084779 690084778#1 690084776 690084782 621843309 430280111#0 430280111#1 596085801#0 596085801#1 596085801#2 609459524 609459486 596085800"/>
    </vehicle>
    <vehicle id="51" depart="51.00">
        <route edges="596052101#2 596052101#3 596052101#4 -596052104 -194894679#1 -194894679#0 -24763456#6 -24763456#5 -24763456#4 -24763456#3 -24763456#2 -24763456#1 468540797#1 468540797#2"/>
    </vehicle>
    <vehicle id="53" depart="53.00">
        <route edges="-481335240 481335241 481335235#2 481335235#3 481335235#4 -30775885#9 -30775885#8 -30775885#7 -30775885#6 -30775885#5 -30775885#4 -30775885#3 -30775885#2 -30775885#1 -696196339 -780589906 -25292876#3 -25292876#2 -25292876#1 -25292876#0 25292875#0 25292875#1 -609348639#2 -609348639#1 -8958410#1 596052104 596052103#1 596052103#2 596052103#3 561916589 396881735#0 396881731#1 396881731#2 698071877 71183126#1 698084662 596052099#1 596052099#2 596052099#3 417319917#0 417319921#1 417319919 363184806#0 363184806#1"/>
    </vehicle>
    <vehicle id="54" depart="54.00">
        <route edges="396669642#0 396669642#1 690330834 497577135#0 497577135#1 596052094 596052093#0 596052093#1 690330833 497577130#0 497577130#1 -609346211#8 -609346211#7 -609346211#6 -609346211#5 -609346211#4 -609346211#3 -609346211#2 -609346211#1 -23693550#1 -23693550#0 609390406#0 609390406#1 -676154806#1 -676154806#0 -696196339 -780589906 -25292876#3 -25292876#2 -25292876#1 -25292876#0 25292875#0 25292875#1 -609348639#2 -609348639#1 -8958410#1 596052104 689764372#0 689764372#1 933360118 596052105#1 596052105#2 609381103 417322395 8948868"/>
    </vehicle>
    <vehicle id="56" depart="56.00">
        <route edges="417319929#0 417319929#1 596067034#0 689239827 8947203#0 8947203#1 682476777#0 677108581#0 677108581#1 677108581#2 677108581#3 274910914#1 274910915#0 274910915#1 274910915#2 417322396 417322395 8948868 417322364 1067494099 396881137#1 -596052104 8958410#1 609348639#1 609348639#2 609390405#0 609390405#1 25292876#0 25292876#1 25292876#2 25292876#3 780589906 696196339 676154806#0 676154806#1 608784173#0 608784173#1 23693550#0 23693550#1 31705613#1 31705613#2 31705613#3 31705613#4 678227662#0 678227662#1 678227662#2 678227662#3 678227662#4 1017389194#0 1017389194#1 630112789#1 884069263#0 884069263#1 619325130#1 8948613#1 596052113#0 580369170#0 580369170#1 -678214209#3 -678214209#1 -678214209#0 -678214207 -678214208 -615332517#1"/>
    </vehicle>
    <vehicle id="57" depart="57.00">
        <route edges="696552526 -696552526 -54756076#1 -54756076#0 -396887091#1 -396887091#0 -396887090#1 -396887090#0 -797221047 -396887092 396887089 396887093#1 396887093#2 1034177165 1034177164 518555623#1 596052093#0 596052093#1 690330833 497577130#0 497577130#1 -609346211#8 -609346211#7 -609346211#6 -609346211#5 -609346211#4 -609346211#3 -609346211#2 -609346211#1 31705613#1 31705613#2 31705613#3 31705613#4 678227662#0"/>
    </vehicle>
    <vehicle id="59" depart="59.00">
        <route edges="539102013#2 -539102013#2 -539102013#1 684456925#0 684456925#1 684456925#4 684456925#7 684456925#8 684456925#9 396881731#1 396881731#2 698071877 71183126#1 698084662 698084661 596052097#0 596052097#1 596052097#2 596052097#3 -707483799 715649715 -596052097#3"/>
    </vehicle>
    <vehicle id="60" depart="60.00">
        <route edges="619325125#11 497577135#1 596052094 596052093#0 596052093#1 690330833 497577130#0 497577130#1 -609346211#8 -609346211#7 -609346211#6 -609346211#5 -609346211#4 -609346211#3 -609346211#2 -609346211#1 -23693550#1 -23693550#0 609390406#0 609390406#1 -676154806#1 -676154806#0 -696196339 -780589906 -25292876#3 -25292876#2 -25292876#1 -25292876#0 25292875#0 25292875#1 -609348639#2 -609348639#1 -8958410#1 -194894679#1 -194894679#0 -24763456#6 -24763456#5 -24763456#4 -24763456#3 -24763456#2 -24763456#1 468540797#1 468540797#2 468540797#3 468540797#4"/>
    </vehicle>
    <vehicle id="61" depart="61.00">
        <route edges="630112787#0 1017389193#0 1017389193#1 -678227662#4 -678227662#3 -678227662#2 -678227662#1 -678227662#0 -31705613#4 -31705613#3 -31705613#2 -31705613#1 -23693550#1 -23693550#0 609390406#0 609390406#1 -676154806#1 -676154806#0 30775885#1 30775885#2 30775885#3 30775885#4 30775885#5 30775885#6 30775885#7 30775885#8 30775885#9 481335235#5 481335235#6 481335235#7 481335235#0 481335236 481335240 481335231 481335232#1 481335232#2 481335232#3 481335233 -30775863#3 -30775863#2 -30775863#1 -30775863#0 481335249#1 -48162361 460597953#1"/>
    </vehicle>
    <vehicle id="62" depart="62.00">
        <route edges="-1038160833#0 674737111#1 674737111#2 674737111#3 674561341 539260299#0 539260299#1 677149784#0 677149784#1 608820466#0 274910914#1 274910915#0 274910915#1 274910915#2 417322396 417322395 8948868 417322364 1067494099 396881137#1 -596052104 8958410#1 609348639#1 609348639#2 609390405#0 609390405#1 25292876#0 25292876#1 25292876#2 25292876#3 780589906 696196339 676154806#0 676154806#1 608784173#0 608784173#1 23693550#0 23693550#1 31705613#1 31705613#2 31705613#3 31705613#4 678227662#0 678227662#1 678227662#2 678227662#3 678227662#4 1017389194#0"/>
    </vehicle>
    <vehicle id="63" depart="63.00">
        <route edges="-23693550#1 -23693550#0 609390406#0 609390406#1 608784173#0 608784173#1 23693550#0 23693550#1 609346211#1 609346211#2 609346211#3 609346211#4 609346211#5 609346211#6 609346211#7 609346211#8 396669642#0 396669642#1 690330834 497577135#0 497577135#1 54755940#0 54755940#1 54755940#2 54755940#3 396887092 797221047"/>
    </vehicle>
    <vehicle id="64" depart="64.00">
        <route edges="681410061#4 681410061#5 -681410061#5 -681410061#4 -681410061#3 684456925#4 684456925#7 684456925#8 684456925#9 596052101#1 596052101#2 596052101#3 596052101#4 689764372#0 689764372#1 933360118 596052105#1 596052105#2 609381103 -417322396 -274910915#2 -274910915#1 -274910915#0 -274910914#1 -608820466#0 -677149784#1 -677149784#0 -539260299#1 -539260299#0 -674561341 -674737111#3 -674737111#2 -674737111#1 674737111#1 674737111#2 674737111#3 674561341"/>
    </vehicle>
    <vehicle id="65" depart="65.00">
        <route edges="-8963661#4 -8963661#3 -8963661#2 -8963661#1 619325125#2 619325125#3 619325125#4 619325125#5 619325125#6 619325125#7 619325125#8 619325125#9 619325125#10 619325125#11 497577135#1 596052094 596052093#0 596052093#1 690330833 497577130#0 497577130#1 -609346211#8 -609346211#7 -609346211#6 -609346211#5 -609346211#4 -609346211#3 -609346211#2 -609346211#1 -23693550#1 -23693550#0 609390406#0 609390406#1 -676154806#1 -676154806#0 -696196339 -780589906 -25292876#3 -25292876#2 -25292876#1 -25292876#0 25292875#0 25292875#1 -609348639#2 -609348639#1 -8958410#1 -194894679#1 -194894679#0 -24763456#6 -24763456#5 -24763456#4 -24763456#3 -24763456#2 -24763456#1 468540797#1 468540797#2 468540797#3 468540797#4 -413736744#1 -413736744#0 -676064527 539102970#1 8943353 -8949475#1 -8949475#0 -28593687"/>
    </vehicle>
    <vehicle id="66" depart="66.00">
        <route edges="681410061#3 681410061#4 681410061#5 -681410061#5 -681410061#4 -681410061#3 684456925#4 684456925#7 684456925#8 684456925#9 596052101#1 596052101#2 596052101#3 596052101#4 -596052104 -194894679#1 -194894679#0 -24763456#6 -24763456#5 -24763456#4 -24763456#3 -24763456#2 -24763456#1 468540797#1 468540797#2 468540797#3 468540797#4 -413736744#1 -413736744#0 -650725345#0 8940787#0 8940787#1 8940787#2"/>
    </vehicle>
    <vehicle id="67" depart="67.00">
        <route edges="-396887095#2 396887095#2 684456925#0 684456925#1 684456925#4 684456925#7 684456925#8 684456925#9 596052101#1 596052101#2 596052101#3 596052101#4 -596052104 -194894679#1 -194894679#0 -24763456#6 -24763456#5 -24763456#4 -24763456#3 -24763456#2 -24763456#1 468540797#1 468540797#2 468540797#3 468540797#4 -413736744#1 -413736744#0 413736744#0 413736744#1"/>
    </vehicle>
    <vehicle id="68" depart="68.00">
        <route edges="-30775885#9 -30775885#8 -30775885#7 -30775885#6 -30775885#5 -30775885#4 -30775885#3 -30775885#2 -30775885#1 676154806#0 676154806#1 608784173#0 608784173#1 23693550#0 23693550#1 31705613#1 31705613#2 31705613#3 31705613#4 678227662#0 678227662#1 678227662#2 678227662#3 678227662#4 1017389194#0 1017389194#1 630112789#1 630112785 630112788#0 630112788#1 619322360 630112784#0 630112784#1 1022449382#0 1022449382#1 619325125#0"/>
    </vehicle>
    <vehicle id="69" depart="69.00">
        <route edges="619325125#4 619325125#5 619325125#6 619325125#7 619325125#8 619325125#9 619325125#10 619325125#11 497577135#1 596052094 596052093#0 596052093#1 690330833 497577130#0 497577130#1 -609346211#8 -609346211#7 -609346211#6 -609346211#5 -609346211#4 -609346211#3 -609346211#2 -609346211#1 -23693550#1 -23693550#0 609390406#0 609390406#1 -676154806#1 -676154806#0 -696196339 -780589906 -25292876#3 -25292876#2 -25292876#1 -25292876#0 25292875#0 25292875#1 -609348639#2 -609348639#1 -8958410#1 -194894679#1 -194894679#0 -24763456#6 -24763456#5 -24763456#4 -24763456#3 -24763456#2 -24763456#1 -539103704#7 -539103704#6 -539103704#5 -539103704#4 -539103704#3 -539103704#2 -539103704#1 -539103703#2"/>
    </vehicle>
    <vehicle id="70" depart="70.00">
        <route edges="396887091#0 396887091#1 54756076#0 54756076#1 696552526 -696552526 -54756076#1 -54756076#0 -396887091#1 -396887091#0 -396887090#1 -396887090#0 -797221047 -396887092 396887089 396887093#1 396887093#2 1034177165 1034177164 518555623#1 596052093#0 596052093#1 690330833 497577130#0 497577130#1 -609346211#8 -609346211#7 -609346211#6 -609346211#5 -609346211#4 -609346211#3 -609346211#2 -609346211#1 -23693550#1 -23693550#0 609390406#0 609390406#1 -676154806#1 -676154806#0 30775885#1 30775885#2 30775885#3 30775885#4 30775885#5 30775885#6 30775885#7 30775885#8 30775885#9 481335235#5 481335235#6 481335235#7 481335235#0 481335236 481335240 481335231 481335232#1 481335232#2 481335232#3"/>
    </vehicle>
    <vehicle id="71" depart="71.00">
        <route edges="-694397330#1 -694397330#0 -696199096#1 -696199096#0 -26249908 676154806#0 676154806#1 608784173#0 608784173#1 23693550#0 23693550#1 31705613#1 31705613#2 31705613#3 31705613#4 678227662#0 678227662#1 678227662#2"/>
    </vehicle>
    <vehicle id="72" depart="72.00">