<?xml version="1.0" encoding="UTF-8"?>

<!-- generated on 2023-03-26 14:54:43 by Eclipse SUMO netedit Version 1.14.1
-->

<additional xmlns:xsi="http://www.w3.org/2001/XMLSchema-instance" xsi:noNamespaceSchemaLocation="http://sumo.dlr.de/xsd/additional_file.xsd">
    <!-- Shapes -->
    <poly id="1029436493" type="building" color="255,230,230" fill="1" layer="-1.00" shape="1402.892271,1754.363288 1428.431662,1744.613091 1426.866217,1740.527350 1431.997126,1738.575302 1432.819120,1740.679543 1482.557884,1721.666904 1473.622485,1698.487862 1461.718113,1703.043183 1418.708161,1719.485502 1406.476591,1687.789652 1449.673142,1671.271241 1453.366053,1669.861326 1445.226267,1648.753043 1402.952886,1664.913447 1403.861120,1667.273633 1399.200611,1669.052308 1395.195445,1658.676287 1394.076957,1659.099176 1393.471238,1657.551606 1373.160269,1665.306305 1369.183300,1666.824714 1402.892271,1754.363288"/>
    <poly id="1038158805" type="building" color="255,230,230" fill="1" layer="-1.00" shape="1413.156396,1074.677545 1422.027132,1072.092630 1420.394402,1066.586109 1411.523660,1069.171025 1413.156396,1074.677545"/>
    <poly id="1038158806" type="building" color="255,230,230" fill="1" layer="-1.00" shape="1409.696311,1086.818682 1435.218295,1080.285950 1428.697888,1055.053406 1409.809053,1059.891386 1411.819936,1067.675764 1422.754158,1064.875981 1425.235641,1074.484128 1407.668126,1078.989770 1409.696311,1086.818682"/>
    <poly id="1038160835" type="leisure" color="207,245,201" fill="1" layer="-2.00" shape="333.258123,1220.802338 365.548767,1245.768958 385.509944,1220.178681 353.219353,1195.200891 333.258123,1220.802338"/>
    <poly id="1038160835#1" type="sport" color="79,230,125" fill="1" layer="-2.00" shape="333.258123,1220.802338 365.548767,1245.768958 385.509944,1220.178681 353.219353,1195.200891 333.258123,1220.802338"/>
    <poly id="1038160838" type="building" color="255,230,230" fill="1" layer="-1.00" shape="704.401605,1159.405239 743.862991,1149.274815 742.128536,1142.192020 745.933958,1141.082342 746.325088,1142.905374 751.318940,1141.473189 752.140561,1139.583051 781.386468,1132.071094 775.691639,1109.353830 749.165348,1116.478965 749.763499,1118.914039 747.243724,1119.713148 743.333960,1120.611106 740.322369,1122.005079 739.190225,1123.992372 739.118111,1126.177513 698.680432,1136.643420 699.213287,1139.466257 696.482699,1141.106787 697.665609,1147.519055 701.444638,1147.407702 704.401605,1159.405239"/>
    <poly id="1038160840" type="natural" color="140,196,107" fill="0" layer="-4.00" shape="836.372162,1218.816120 837.706107,1136.855812"/>
    <poly id="1040231570" type="building" color="255,230,230" fill="1" layer="-1.00" shape="1067.940783,326.114837 1064.951014,312.829843 1102.205006,302.659531 1105.581030,316.291872 1067.940783,326.114837"/>
    <poly id="1040377400" type="building" color="255,230,230" fill="1" layer="-1.00" shape="900.781111,369.390988 897.362570,355.525365 943.084039,344.385267 946.715348,358.197292 900.781111,369.390988"/>
    <poly id="1040629365" type="building" color="255,230,230" fill="1" layer="-1.00" shape="1000.295427,437.108775 1012.266697,434.184358 1007.652326,416.435983 1000.475346,386.127567 994.179656,387.625907 992.983472,382.744634 998.924661,381.309767 996.534235,371.325330 983.676523,374.419554 986.512818,386.038886 987.520937,390.164038 988.673995,389.852346 1000.295427,437.108775"/>
    <poly id="1040629366" type="building" color="255,230,230" fill="1" layer="-1.00" shape="1048.719203,424.528294 1061.932046,421.293038 1047.697896,359.157106 1033.598504,362.573257 1048.719203,424.528294"/>
    <poly id="1040629367" type="building" color="255,230,230" fill="1" layer="-1.00" shape="1007.723013,416.447696 1020.846596,413.300358 1021.555387,416.235704 1033.596899,413.378502 1032.819945,410.142986 1044.364912,407.403508 1043.664976,404.468237 1032.261864,407.175670 1031.553464,404.195946 1019.086265,407.160384 1019.777652,410.062292 1006.955092,413.190072 1007.723013,416.447696"/>
    <poly id="1040629368" type="building" color="255,230,230" fill="1" layer="-1.00" shape="1059.434159,378.066198 1073.568735,374.672589 1060.835947,321.980749 1066.688322,320.589534 1065.810917,316.698517 1060.428460,317.982888 1058.455738,309.821710 1045.500480,312.926084 1047.020557,319.219296 1036.140338,321.820345 1037.848290,328.891866 1039.889195,337.353208 1045.652977,335.972299 1050.383552,355.607905 1054.010278,354.740893 1057.135679,367.694212 1050.201448,369.353357 1051.345676,374.101042 1058.084858,372.484574 1059.434159,378.066198"/>
    <poly id="1040629369" type="building" color="255,230,230" fill="1" layer="-1.00" shape="965.927778,401.570018 981.170991,397.875267 979.744044,392.059977 982.084871,391.514562 987.449862,390.196703 986.450591,386.071628 978.274853,388.041752 970.337999,355.563152 978.035873,353.599942 973.649330,337.107347 943.313219,344.487125 945.295376,352.592880 953.453541,350.611475 965.927778,401.570018"/>
    <poly id="1040629370" type="building" color="255,230,230" fill="1" layer="-1.00" shape="969.170735,318.994041 976.337371,345.441179 984.806009,343.373753 986.798138,351.346463 991.436061,350.199779 992.196795,353.268719 1028.076463,344.395320 1027.016335,340.147661 1032.195169,338.872584 1030.152124,330.655322 1037.610070,328.812117 1033.583397,312.666588 1025.478069,314.670568 1027.179221,321.509027 1014.932522,324.541973 1011.110986,309.219298 969.170735,318.994041"/>
    <poly id="1040629371" type="residential" color="235,235,227" fill="1" layer="-3.00" shape="1022.336337,458.504428 1173.933900,419.843221 1150.180286,325.247722 1116.465465,334.450210 1100.472432,291.327195 1013.945309,312.960978 1012.554730,307.035048 966.414672,318.448498 968.318925,326.353863 919.708155,331.920977 851.567000,348.790588 850.478660,473.625060 851.014772,488.253299 862.693520,491.461804 872.990829,492.760986 885.382498,492.347587 927.509556,483.361837 950.707044,477.694929 974.930316,471.093945 1022.336337,458.504428"/>
    <poly id="1062766601" type="parking" color="184,184,179" fill="1" layer="-1.00" shape="2704.023032,644.282583 2709.651188,631.362465 2726.979944,622.086399 2729.797524,627.603789 2734.588337,625.205667 2739.937770,636.526375 2750.547628,631.528533 2753.020124,637.042844 2758.157790,634.448122 2777.153302,674.250639 2771.956698,676.511961 2774.437606,681.083251 2755.818333,690.214526 2752.939553,684.618911 2749.073544,689.477364 2718.548831,665.449221 2704.023032,644.282583"/>
    <poly id="1062766604" type="amenity" color="237,199,199" fill="1" layer="-1.00" shape="2685.674554,621.140119 2678.510227,613.875212 2670.942963,598.229738 2684.486207,591.737968 2686.397532,595.693894 2690.956421,593.504485 2700.808382,613.897016 2685.674554,621.140119"/>
    <poly id="1062766606" type="amenity" color="237,199,199" fill="1" layer="-1.00" shape="2635.100752,589.931953 2643.365942,585.900515 2629.617037,557.961713 2625.804442,559.813866 2618.530327,545.014306 2614.077805,547.182514 2635.100752,589.931953"/>
    <poly id="1062766608" type="amenity" color="237,199,199" fill="1" layer="-1.00" shape="2708.200739,477.889988 2721.256872,471.471586 2719.344739,467.604408 2726.561561,464.062965 2722.554661,455.971922 2702.272740,465.942796 2708.200739,477.889988"/>
    <poly id="1062766609" type="amenity" color="237,199,199" fill="1" layer="-1.00" shape="2620.085626,500.657986 2627.542461,496.985458 2603.204099,447.937591 2595.756180,451.599125 2620.085626,500.657986"/>
    <poly id="1062766610" type="amenity" color="237,199,199" fill="1" layer="-1.00" shape="2522.532547,504.236574 2535.729859,497.841335 2526.796635,479.543131 2513.590455,485.938305 2522.532547,504.236574"/>
    <poly id="1062766611" type="amenity" color="237,199,199" fill="1" layer="-1.00" shape="2510.437311,401.929698 2517.678860,398.588012 2533.220119,432.001493 2525.969744,435.343087 2510.437311,401.929698"/>
    <poly id="1062766612" type="amenity" color="237,199,199" fill="1" layer="-1.00" shape="2486.747156,350.535773 2494.621901,346.644945 2508.078604,373.704361 2500.203977,377.584082 2486.747156,350.535773"/>
    <poly id="1062766613" type="amenity" color="237,199,199" fill="1" layer="-1.00" shape="2517.649002,335.455372 2528.436059,330.458824 2529.660294,333.088239 2539.246540,353.589137 2542.025087,359.538825 2534.685671,362.935094 2527.686989,347.971654 2524.248220,349.571996 2517.649002,335.455372"/>
    <poly id="1062766614" type="amenity" color="237,199,199" fill="1" layer="-1.00" shape="2580.293458,340.019671 2588.014869,336.460421 2578.143564,315.191343 2571.346207,318.326132 2570.422138,318.750603 2580.293458,340.019671"/>
    <poly id="1062766615" type="leisure" color="207,245,201" fill="1" layer="-2.00" shape="2689.308541,385.851785 2704.958164,378.369195 2693.542709,354.667385 2677.893053,362.149997 2689.308541,385.851785"/>
    <poly id="1062766615#1" type="sport" color="79,230,125" fill="1" layer="-2.00" shape="2689.308541,385.851785 2704.958164,378.369195 2693.542709,354.667385 2677.893053,362.149997 2689.308541,385.851785"/>
    <poly id="1062766616" type="amenity" color="237,199,199" fill="1" layer="-1.00" shape="2672.402586,404.207691 2686.118630,432.867457 2689.779888,431.124931 2686.730851,424.762245 2688.134891,424.097980 2677.467798,401.811986 2672.402586,404.207691"/>
    <poly id="1062766619" type="amenity" color="237,199,199" fill="1" layer="-1.00" shape="2643.115574,417.804077 2656.716669,446.462767 2664.056561,443.011133 2650.446637,414.352352 2643.115574,417.804077"/>
    <poly id="1062766624" type="amenity" color="237,199,199" fill="1" layer="-1.00" shape="2621.126099,379.195659 2630.108976,375.081852 2621.228182,355.874200 2612.245190,359.999112 2621.126099,379.195659"/>
    <poly id="1062766631" type="parking" color="184,184,179" fill="1" layer="-1.00" shape="2610.986729,247.237209 2613.737962,251.289376 2617.812840,248.818219 2634.123095,275.381842 2628.966396,279.097100 2631.798065,284.048713 2584.914405,307.096715 2580.929116,300.525999 2574.969614,302.980354 2571.172565,295.146457 2576.314772,293.050951 2572.624518,283.165372 2565.493877,285.964332 2566.888215,291.346910 2538.309793,298.891946 2537.099666,293.688542 2535.842468,289.793966 2534.654570,286.066438 2532.907231,279.582281 2560.126989,272.579868 2562.859923,278.684489 2568.008609,276.855324 2565.353864,271.905312 2570.944174,270.168851 2610.986729,247.237209"/>
    <poly id="1062766632" type="parking" color="184,184,179" fill="1" layer="-1.00" shape="2516.342083,285.536970 2517.680352,290.264415 2531.064481,297.684502 2533.110798,307.355682 2536.292931,306.751633 2536.135846,311.465743 2534.197074,315.531527 2531.488903,314.586459 2532.835512,319.369458 2512.542972,329.529319 2509.990927,324.968577 2508.271396,329.258228 2494.014388,336.376358 2489.636493,335.127941 2487.633386,340.458028 2480.104130,336.363313 2472.882182,330.551570 2468.611205,324.255746 2472.676859,321.817724 2461.781624,300.228998 2516.342083,285.536970"/>
    <poly id="1062766633" type="amenity" color="237,199,199" fill="1" layer="-1.00" shape="2644.322414,297.563733 2656.338704,292.667091 2651.198531,282.646473 2640.254546,287.364080 2644.322414,297.563733"/>
    <poly id="1062766634" type="landuse" color="194,194,130" fill="1" layer="-3.00" shape="2706.986163,542.476134 2731.399164,530.644921 2714.124052,495.307141 2690.350806,506.833455 2698.093296,522.680227 2700.839411,521.351148 2704.628075,529.107370 2701.250982,530.741476 2706.986163,542.476134"/>
    <poly id="1079892513" type="natural" color="140,196,107" fill="1" layer="-4.00" shape="1508.166515,1041.483706 1518.275250,1071.163824 1520.183843,1089.554439 1530.861194,1099.856088 1620.842806,1079.057105 1625.418450,1072.895154 1624.443738,1064.021416 1603.138942,1038.769398 1585.310021,1040.787019 1565.872861,1037.542439 1517.442058,1023.069460 1508.729407,1028.795636 1508.166515,1041.483706"/>
    <poly id="1079892514" type="forest" color="140,196,107" fill="1" layer="-4.00" shape="1796.860067,1038.592172 1669.751941,1072.342882 1666.535790,1059.787922 1670.796494,1046.200458 1680.386389,1023.284463 1685.959739,996.305455 1689.249225,967.442296 1702.454151,955.009989 1723.457114,935.245943 1734.188894,979.477776 1729.005022,994.388499 1718.485067,1008.375608 1707.059123,1010.726856 1695.295209,1035.343417 1725.904665,1034.892293 1746.936551,1022.861991 1742.116277,1013.621432 1751.363153,1012.549146 1791.548940,1022.823205 1796.860067,1038.592172"/>
    <poly id="1079892515" type="natural" color="140,196,107" fill="1" layer="-4.00" shape="1695.295209,1035.343417 1725.904665,1034.892293 1746.936551,1022.861991 1742.116277,1013.621432 1751.363153,1012.549146 1791.548940,1022.823205 1781.489254,985.687123 1736.975216,995.612753 1734.188894,979.477776 1729.005022,994.388499 1718.485067,1008.375608 1707.059123,1010.726856 1695.295209,1035.343417"/>
    <poly id="1079892516" type="forest" color="140,196,107" fill="1" layer="-4.00" shape="1659.266698,803.422331 1647.640231,820.462076 1659.886271,837.523653 1672.639905,861.235812 1679.146164,878.979099 1717.190560,888.346272 1745.995351,875.885260 1737.773172,863.097469 1745.717737,844.183525 1731.111078,789.831862 1722.463198,787.170345 1659.266698,803.422331"/>
    <poly id="1079892517" type="natural" color="140,196,107" fill="1" layer="-4.00" shape="1679.146164,878.979099 1683.966857,885.179506 1690.925598,910.804460 1694.150280,934.432615 1693.576082,944.357847 1702.454151,955.009989 1723.457114,935.245943 1732.546150,918.982768 1736.650953,898.015583 1742.737132,894.163754 1755.131740,897.368755 1755.838171,891.516670 1754.126709,880.916640 1745.995351,875.885260 1717.190560,888.346272 1679.146164,878.979099"/>
    <poly id="1079892518" type="natural" color="140,196,107" fill="1" layer="-4.00" shape="1545.685868,1217.962943 1659.133057,1189.892781 1637.446393,1104.622784 1522.129955,1133.841819 1545.685868,1217.962943"/>
    <poly id="1079892519" type="natural" color="140,196,107" fill="0" layer="-4.00" shape="1646.054257,1111.788563 1669.445681,1204.396522"/>
    <poly id="1079892520" type="natural" color="140,196,107" fill="1" layer="-4.00" shape="1703.393783,1176.458407 1816.842113,1148.390375 1795.980670,1065.024525 1681.094349,1094.500379 1703.393783,1176.458407"/>
    <poly id="1081651276" type="amenity" color="237,199,199" fill="1" layer="-1.00" shape="1405.392026,1054.060829 1425.622479,1048.591103 1424.448320,1044.264713 1404.208913,1049.745458 1405.392026,1054.060829"/>
    <poly id="1081651277" type="amenity" color="237,199,199" fill="1" layer="-1.00" shape="1482.107173,997.428025 1485.982668,996.419155 1480.109960,974.010475 1476.234456,975.019347 1482.107173,997.428025"/>
    <poly id="1084274267" type="leisure" color="207,245,201" fill="1" layer="-2.00" shape="338.859640,1623.254087 341.255114,1613.289087 356.183050,1616.081250 353.481197,1626.687118 338.859640,1623.254087"/>
    <poly id="1084274267#1" type="sport" color="79,230,125" fill="1" layer="-2.00" shape="338.859640,1623.254087 341.255114,1613.289087 356.183050,1616.081250 353.481197,1626.687118 338.859640,1623.254087"/>
    <poly id="1084274268" type="leisure" color="207,245,201" fill="1" layer="-2.00" shape="343.553128,1595.168218 341.577427,1583.223689 347.515531,1582.032447 349.426125,1594.342558 343.553128,1595.168218"/>
    <poly id="1084274271" type="leisure" color="207,245,201" fill="1" layer="-2.00" shape="337.224711,1544.374731 340.147613,1542.979848 341.333567,1542.934643 342.634050,1542.945906 343.349105,1543.129623 344.238976,1542.538185 343.781817,1541.180602 342.074077,1539.157568 340.849838,1537.493770 339.443466,1535.406775 337.551581,1534.214292 335.361122,1533.784799 333.750143,1534.891471 333.261654,1536.129911 333.373309,1537.539978 334.835837,1539.272409 335.479742,1540.520656 335.991144,1542.766329 337.224711,1544.374731"/>
    <poly id="109150505" type="tourism" color="207,245,201" fill="1" layer="-2.00" shape="1344.755904,1421.947643 1323.115006,1477.334020 1310.675566,1527.708460 1355.061610,1531.970396 1410.259371,1613.739531 1419.835824,1632.463817 1440.450672,1626.387292 1471.309258,1639.606896 1524.155518,1746.076514 1496.563388,1758.848474 1504.387471,1769.557730 1593.116758,1891.067198 1751.389348,2026.672347 1784.459407,2155.858860 1798.784088,2192.722067 1737.860859,2253.274785 1712.222016,2276.426292 1692.879377,2283.855879 1676.458588,2293.019968 1670.988259,2297.376552 1668.892191,2301.319093 1672.578569,2307.642664 1764.867479,2408.803537 1776.507220,2412.079630 1890.604728,2272.799048 1950.041592,2204.378762 1985.471088,2173.658920 2050.373362,2118.602148 2091.204677,2084.391229 2390.368773,1756.209766 2389.308812,1740.123177 2269.517950,1663.264881 2180.122140,1604.652687 2165.720831,1595.415534 2135.026424,1515.944590 2120.019429,1345.609108 2070.135057,1150.110879 2060.453798,1148.294176 2005.675268,1215.301544 1916.530074,1323.601439 1903.356527,1334.513627 1891.638770,1346.892200 1888.668793,1358.571489 1874.915964,1375.969357 1854.383501,1396.635898 1836.288913,1409.768126 1800.824449,1431.134969 1769.692921,1442.776347 1702.473994,1450.182705 1619.434754,1447.652997 1554.507553,1441.999372 1478.838299,1451.541088 1421.421392,1451.069504 1381.842037,1442.455710 1344.755904,1421.947643"/>
    <poly id="109150505#1" type="forest" color="140,196,107" fill="1" layer="-4.00" shape="1344.755904,1421.947643 1323.115006,1477.334020 1310.675566,1527.708460 1355.061610,1531.970396 1410.259371,1613.739531 1419.835824,1632.463817 1440.450672,1626.387292 1471.309258,1639.606896 1524.155518,1746.076514 1496.563388,1758.848474 1504.387471,1769.557730 1593.116758,1891.067198 1751.389348,2026.672347 1784.459407,2155.858860 1798.784088,2192.722067 1737.860859,2253.274785 1712.222016,2276.426292 1692.879377,2283.855879 1676.458588,2293.019968 1670.988259,2297.376552 1668.892191,2301.319093 1672.578569,2307.642664 1764.867479,2408.803537 1776.507220,2412.079630 1890.604728,2272.799048 1950.041592,2204.378762 1985.471088,2173.658920 2050.373362,2118.602148 2091.204677,2084.391229 2390.368773,1756.209766 2389.308812,1740.123177 2269.517950,1663.264881 2180.122140,1604.652687 2165.720831,1595.415534 2135.026424,1515.944590 2120.019429,1345.609108 2070.135057,1150.110879 2060.453798,1148.294176 2005.675268,1215.301544 1916.530074,1323.601439 1903.356527,1334.513627 1891.638770,1346.892200 1888.668793,1358.571489 1874.915964,1375.969357 1854.383501,1396.635898 1836.288913,1409.768126 1800.824449,1431.134969 1769.692921,1442.776347 1702.473994,1450.182705 1619.434754,1447.652997 1554.507553,1441.999372 1478.838299,1451.541088 1421.421392,1451.069504 1381.842037,1442.455710 1344.755904,1421.947643"/>
    <poly id="109151789" type="building" color="255,230,230" fill="1" layer="-1.00" shape="960.138002,1170.954823 988.228921,1163.999362 987.015165,1159.117928 997.212368,1156.588536 1003.803622,1182.964152 1033.871932,1175.515741 1020.057160,1120.207024 983.462438,1129.273858 978.521033,1109.503274 946.749987,1117.380831 954.521955,1148.393445 960.138002,1170.954823"/>
    <poly id="109151790" type="building" color="255,230,230" fill="1" layer="-1.00" shape="1199.978315,1509.184893 1227.183830,1502.200305 1221.977361,1480.463356 1224.912493,1479.712414 1227.457782,1478.014956 1228.440772,1474.883603 1227.046862,1471.398555 1223.257181,1469.712135 1218.966426,1470.684196 1213.471854,1448.500916 1186.361745,1455.686103 1199.978315,1509.184893"/>
    <poly id="1119440740" type="tourism" color="207,245,201" fill="1" layer="-2.00" shape="349.641704,1468.324325 366.175730,1498.180683 387.858832,1558.671366 391.989640,1583.283196 390.993538,1609.403935 388.983651,1661.645262 388.809429,1681.748392 408.594398,1710.057502 436.267710,1759.149955 455.622930,1819.620679 455.143205,1856.563802 461.470887,1897.127569 470.420375,1921.015693 485.749999,1943.716527 505.507575,1956.725266 531.390756,1962.198073 571.037393,1938.432415 611.824760,1925.949669 652.391061,1920.588373 670.245850,1920.433038 702.891172,1933.698633 704.834079,1942.225634 712.205092,1933.935048 704.342698,1927.531192 673.726504,1912.885241 647.166294,1914.041087 612.819513,1918.380237 565.819226,1931.119664 536.041177,1945.240483 515.377600,1946.913962 492.718951,1927.699946 474.872547,1891.208016 468.986931,1853.743656 466.052543,1815.683573 445.983624,1767.122964 428.632849,1726.463629 399.225235,1680.440661 396.036871,1654.283652 404.152970,1631.475541 400.188970,1586.605176 395.939233,1557.343390 385.845636,1522.472233 358.641264,1459.969870 349.641704,1468.324325"/>
    <poly id="1122834585" type="leisure" color="207,245,201" fill="1" layer="-2.00" shape="815.490603,1117.378555 813.249586,1108.527180 795.771943,1112.923933 798.021824,1121.775380 815.490603,1117.378555"/>
    <poly id="1122834585#1" type="sport" color="79,230,125" fill="1" layer="-2.00" shape="815.490603,1117.378555 813.249586,1108.527180 795.771943,1112.923933 798.021824,1121.775380 815.490603,1117.378555"/>
    <poly id="1122834586" type="building" color="255,230,230" fill="1" layer="-1.00" shape="826.374476,1104.081424 834.026908,1102.173176 833.291672,1099.226517 825.630390,1101.134688 826.374476,1104.081424"/>
    <poly id="1122834592" type="natural" color="140,196,107" fill="0" layer="-4.00" shape="848.865664,1037.151073 847.400059,1123.037950"/>
    <poly id="1122834593" type="natural" color="140,196,107" fill="0" layer="-4.00" shape="837.033402,1114.559529 837.190623,1099.571177"/>
    <poly id="1122834594" type="natural" color="140,196,107" fill="0" layer="-4.00" shape="838.057440,1092.499946 838.013997,1040.651327"/>
    <poly id="1122834596" type="natural" color="140,196,107" fill="0" layer="-4.00" shape="845.578867,1221.292977 847.990062,1135.536381 919.696680,1117.965704"/>
    <poly id="1122834858" type="landuse" color="194,194,130" fill="1" layer="-3.00" shape="686.479964,1166.039599 770.300246,1148.295674 786.473966,1161.529003 834.912630,1172.092259 834.908206,1223.341326 760.373345,1242.718797 755.071927,1227.660711 703.714387,1242.436314 686.479964,1166.039599"/>
    <poly id="1131828786" type="forest" color="140,196,107" fill="1" layer="-4.00" shape="-212.340188,781.861519 -180.301719,809.786194 -196.338450,852.431619 -223.149156,934.905197 -239.018149,1013.700450 -240.692240,1042.755613 -233.044289,1065.033988 -203.797520,1085.134669 -170.395986,1092.278642 -142.652775,1095.823601 -100.053983,1109.659739 -44.319441,1141.339439 -36.862779,1156.992498 -25.031244,1160.877903 -8.562820,1204.735105 -6.835217,1252.725879 11.056744,1268.946019 40.214838,1272.503799 78.127449,1279.687694 109.568782,1293.428677 150.062578,1303.941571 187.611593,1297.886181 200.895782,1298.478079 240.550320,1323.152816 284.365227,1360.867400 305.875832,1397.446038 315.635653,1421.873542 344.986337,1458.287167 323.445852,1479.359180 300.000027,1445.604124 283.941591,1437.432177 260.809979,1394.936888 254.043527,1381.408706 248.691250,1369.068858 244.335211,1352.022143 219.303690,1337.858955 183.778757,1328.808845 148.788784,1340.789031 129.362706,1337.314889 87.522836,1318.757506 59.362468,1309.305485 15.689341,1309.394881 -9.195499,1305.874008 -28.071385,1292.951819 -41.604689,1266.839052 -46.429622,1247.658178 -47.778740,1212.197220 -54.205216,1186.855790 -60.266677,1173.578049 -90.897154,1147.784167 -123.504557,1131.670643 -151.202251,1123.876528 -186.522016,1118.602178 -226.787681,1110.223198 -249.195309,1093.254712 -263.497048,1073.049503 -268.511476,1021.247132 -264.372370,982.293983 -261.229992,947.104662 -244.637662,894.311743 -234.392557,862.500914 -232.507942,836.753949 -212.340188,781.861519"/>
    <poly id="1131828787" type="forest" color="140,196,107" fill="1" layer="-4.00" shape="668.652272,1979.534873 700.758707,1943.898833 684.742209,1930.045653 657.730889,1925.095130 629.008772,1898.138959 587.391388,1915.507431 572.144008,1905.766414 541.879543,1933.097472 521.400713,1936.925026 510.035356,1932.488092 484.372317,1897.559288 479.297825,1843.092893 464.541554,1766.518373 454.987094,1747.074224 439.103712,1723.902660 432.244204,1702.806527 421.035141,1692.546059 410.699600,1660.102626 421.219001,1624.400465 414.746040,1592.378857 405.741860,1586.986165 406.077099,1554.435536 399.217070,1551.746495 391.876590,1524.865600 397.637704,1511.434773 387.426760,1490.098833 376.400403,1467.901508 344.986337,1458.287167 323.445852,1479.359180 342.854621,1512.369247 360.479224,1559.310666 362.515129,1599.027191 352.934722,1663.219122 353.067053,1703.096686 384.097497,1736.451650 402.437282,1756.937152 422.020429,1797.271835 429.979520,1863.979100 432.949322,1905.112870 443.537876,1943.017425 452.775217,1971.457094 459.230281,1993.248754 495.614576,2011.993763 527.939347,2006.127622 570.830097,1985.707629 618.487317,1962.499996 651.680866,1965.617971 668.652272,1979.534873"/>
    <poly id="1131828788" type="landuse" color="194,194,130" fill="1" layer="-3.00" shape="714.049465,1397.860184 718.396633,1389.387945 703.614176,1343.413577 580.403957,1375.661275 601.523777,1375.611801 642.508072,1383.535080 661.878367,1393.389725 691.026111,1399.080002 714.049465,1397.860184"/>
    <poly id="1131828789" type="landuse" color="194,194,130" fill="1" layer="-3.00" shape="529.873267,1373.813290 531.189169,1347.595486 539.781051,1337.318198 635.684820,1313.520021 632.270234,1299.199615 690.127434,1283.747847 702.512326,1332.774709 538.190254,1371.755213 529.873267,1373.813290"/>
    <poly id="1131828790" type="landuse" color="194,194,130" fill="1" layer="-3.00" shape="291.287466,999.543451 284.198043,995.698626 266.350645,1001.935100 245.811054,1016.636205 229.712041,1039.663908 223.036957,1070.794977 219.344796,1085.419898 194.735772,1119.535937 369.139642,1264.306971 444.654222,1165.481301 381.925933,1130.386918 332.027389,1091.121319 313.980012,1064.258787 300.226928,1036.013265 291.287466,999.543451"/>
    <poly id="1135975112" type="parking" color="184,184,179" fill="1" layer="-1.00" shape="804.603335,1418.376329 800.372410,1401.319290 840.189569,1390.859583 844.587352,1408.051243 804.603335,1418.376329"/>
    <poly id="1138161882" type="forest" color="140,196,107" fill="1" layer="-4.00" shape="-159.202542,266.822340 -53.456175,196.589425 16.246535,150.390088 142.560147,90.511196 187.447777,60.176081 246.523241,34.679317 340.972551,37.393628 403.146351,38.398041 467.757612,32.822379 487.069118,51.885068 492.223702,88.100298 492.585783,128.989442 474.667677,252.324195 478.779734,305.683652 453.712335,339.218036 398.999388,348.529844 421.897957,305.878397 427.306508,268.900412 453.462219,248.656404 453.242854,144.336940 457.151539,110.951932 445.724477,87.819125 406.823516,52.143626 376.250459,74.568578 339.950608,100.250449 302.113158,84.800190 282.316136,67.608833 204.729419,91.991195 179.389847,113.041881 145.552583,129.292706 123.400279,110.195206 75.048260,157.520875 37.582898,208.724129 13.813159,230.476741 4.444954,245.563209 -5.610453,261.331671 -28.314997,298.138720 -45.247883,306.957855 -86.595396,310.740457 -114.537914,312.574852 -128.392615,299.940256 -100.201183,278.436101 -104.777782,258.070253 -74.761132,245.569025 -49.446969,227.346654 -56.459941,214.526754 -120.390292,252.266284 -124.732564,267.407218 -163.226161,279.902319 -199.508574,293.559402 -211.177155,292.183202 -197.620620,283.922770 -159.202542,266.822340"/>
    <poly id="1151639040" type="landuse" color="194,194,130" fill="1" layer="-3.00" shape="1467.342880,1319.017516 1462.400582,1287.419009 1469.896100,1285.243678 1474.477045,1303.602314 1485.303256,1300.979194 1488.151670,1314.118901 1467.342880,1319.017516"/>
    <poly id="1151639044" type="tourism" color="207,245,201" fill="1" layer="-2.00" shape="1487.043367,1244.985411 1474.087522,1248.299898 1468.211762,1226.257332 1475.298413,1230.336158 1482.669150,1228.270693 1487.043367,1244.985411"/>
    <poly id="116855068" type="building" color="255,230,230" fill="1" layer="-1.00" shape="1036.751590,1162.903384 1017.383831,1090.991962 1055.732064,1080.753411 1062.759436,1106.822219 1075.099521,1152.664926 1036.751590,1162.903384"/>
    <poly id="130100409" type="building" color="255,230,230" fill="1" layer="-1.00" shape="1081.231218,1449.994695 1063.128971,1439.883864 1059.905086,1428.127942 1070.869191,1409.705800 1080.881399,1407.052850 1082.455844,1412.159364 1085.798238,1411.378650 1093.408862,1441.524582 1090.077462,1442.061292 1091.246294,1447.008925 1081.231218,1449.994695"/>
    <poly id="130100411" type="building" color="255,230,230" fill="1" layer="-1.00" shape="1094.547456,1501.493515 1076.209870,1490.992257 1072.896197,1479.390877 1083.865898,1460.325274 1094.205483,1457.664110 1095.616393,1463.257389 1107.172959,1460.041030 1114.787351,1490.752880 1103.393563,1493.571221 1104.562476,1498.507762 1094.547456,1501.493515"/>
    <poly id="130100412" type="building" color="255,230,230" fill="1" layer="-1.00" shape="920.979892,1546.676584 912.965606,1514.064139 914.065038,1513.796354 912.903022,1509.070713 908.824458,1510.066975 907.739446,1505.641579 879.278368,1512.571866 890.471117,1558.126927 919.118319,1551.142830 918.186944,1547.362301 920.979892,1546.676584"/>