<configuration>
    <input>
        <net-file value="cross_intersection.net.xml"/>
        <!--<route-files value="cross_intersection.rou.xml"/>-->
        <additional-files value="cross_intersection.add.xml"/>

    </input>


	
	<gui_only>
        <gui-settings-file value="cross intersection.view.xml"/>
    </gui_only>
</configuration>